          38
    -173.9284212    
X2    -0.7214237101       -0.5473707917         1.000210259    
X3     -1.576365327       -0.3067275172       -0.6939667733    
X1    -0.1340766698E-01   -0.2312228899       -0.7406186180    
X2    -0.8339162343        0.4737347044       -0.9490546195    
X1     0.4260704066E-01   -0.7397729839        0.2301992504    
X2    -0.8069406092        0.9379864284        0.5380535696    
X3     0.7001831943E-01   -0.2780063094         1.725964498    
X3     0.8654837036        -1.455731627        0.4389254647    
X3    -0.8655345861         1.455680775       -0.4387344061    
X3     0.6935265999         1.529616305       -0.4901680879    
X3     0.9940091083E-01    -1.259927997         1.209816154    
X3    -0.6992186688E-01    0.2780481807        -1.725978107    
X3      1.519963047        0.8185289089       -0.2832120759    
X1     0.7745646096        0.3667868240E-01   -0.2552470209E-01
X3     0.7524774497       -0.4296434736        -1.519924365    
X3     0.7244566322E-01    -1.725351686       -0.2807555276    
X2     0.7213819927        0.5474274461        -1.000265016    
X1     0.1345712832E-01    0.2312181310        0.7405900377    
X3    -0.7523973814        0.4295709531         1.519989672    
X3    -0.9956162367E-01     1.260015702        -1.209794992    
X3      1.576420023        0.3067258326        0.6937644560    
X3    -0.7244134607E-01     1.725331476        0.2808992887    
X3    -0.1574328122E-01     1.211007162         1.262614665    
X2    -0.7483651839        -1.011645242       -0.4868269179    
X3     0.1583390630E-01    -1.211119771        -1.262549483    
X3     -1.549379824        0.1587231337        0.7968186339    
X2     0.7483886883         1.011685985        0.4867738575    
X1    -0.7745817489       -0.3668165891E-01    0.2549010843E-01
X3      1.549360753       -0.1587294534       -0.7967261662    
X3     -1.605775634        0.6704089370       -0.1801989528    
X2     0.8069536569       -0.9380557908       -0.5379594902    
X3     -1.520106955       -0.8184111085        0.2830759998    
X3     0.8067041600        0.5034351257         1.468590866    
X1    -0.4259934430E-01    0.7397803111       -0.2302203611    
X3    -0.8065413576       -0.5034524990        -1.468691481    
X2     0.8339312965       -0.4737394859        0.9490397683    
X3    -0.6936817264        -1.529491388        0.4901060773    
X3      1.605766459       -0.6705225062        0.1802475171    
