           52
    -15.33241035    
HH        2.7561873034       -0.4052412512        2.0908782586
CH        2.4768496239        0.3156412978        1.3241732992
HH        1.6504996452        0.9259944644        1.6804622908
HH        3.3292534971        0.9524844970        1.0933608792
C         2.0521126078       -0.4118461335        0.0718348540
O         2.3140745291        0.0629184833       -1.0284021596
N         1.3757992827       -1.5484055801        0.2195214793
H         1.0915425619       -1.8166872957        1.1564060651
CA        0.9275326269       -2.3804375206       -0.8984589407
HA        1.7800136769       -2.5784162845       -1.5498784090
CB        0.4390613039       -3.7230064760       -0.3387894847
HB        1.2515548696       -4.2225401424        0.1900868900
HB       -0.3907762941       -3.5626211055        0.3513232737
HB        0.1014128309       -4.3607472105       -1.1563594499
C        -0.1484123593       -1.6482532339       -1.7233438514
O        -1.3051065504       -1.5615844300       -1.3185676469
N         0.2491801533       -1.0315106881       -2.8407928589
H         1.2281873841       -1.0653564377       -3.0810778322
CA       -0.6073910146       -0.0962976151       -3.5795908259
HA       -1.5263286345       -0.6121284393       -3.8643343241
CB        0.1328764934        0.3211465311       -4.8559123512
HB        0.3647954256       -0.5588531435       -5.4570085630
HB       -0.5019180048        0.9888906894       -5.4405426109
HB        1.0565816192        0.8430868952       -4.6013522819
C        -1.0189969402        1.1338949429       -2.7366961955
O        -2.0507166335        1.7425953182       -3.0021392336
N        -0.2417327014        1.4676168821       -1.6988992706
H         0.6263309328        0.9582975560       -1.5826474606
CA       -0.5522637642        2.4919236519       -0.6992186646
HA       -1.3772619737        3.1019789577       -1.0708717453
CB        0.6711534393        3.4105193392       -0.5679868750
HB        1.5217170514        2.8494779467       -0.1798817398
HB        0.9280636320        3.8257559912       -1.5432722445
HB        0.4445070324        4.2319440469        0.1129831300
C        -1.0285777648        1.9101938967        0.6555502114
O        -0.9883850429        2.6015886386        1.6735630022
N        -1.4383326160        0.6354530460        0.7140993434
H        -1.4732865868        0.0843395523       -0.1361489365
CA       -1.8727859138       -0.0095330180        1.9556128278
HA       -2.5137409444        0.6891283819        2.4960322801
CB       -2.7330556481       -1.2336350344        1.6146001442
HB       -2.1321211875       -1.9892188640        1.1094418904
HB       -3.5593701961       -0.9399641955        0.9660161860
HB       -3.1358174696       -1.6637484179        2.5319071951
C        -0.6758209551       -0.3465361696        2.8700616038
O        -0.0408849781       -1.3945208940        2.7343444547
N        -0.3502492948        0.5695961053        3.7891578158
H        -0.8430279079        1.4529243295        3.7467299969
CH        0.7281944688        0.4268088309        4.7653000727
HH        1.6907536922        0.5988563982        4.2817496096
HH        0.7190821496       -0.5815189468        5.1847107441
HH        0.5990435430        1.1495518574        5.5722661584
