 150
    -893.3101426    
X2     -1.526539327        -1.888887486        0.9261938778    
X2      1.975531713         1.411793505        0.9275856579    
X2     -1.975669417        -1.411572298       -0.7922159472    
X2      1.526154126         1.889248231       -0.7907569288    
X2    -0.2650954951         1.090331329        -2.481060614    
X2     -1.071929229        0.3303457224        -2.481172418    
X2      1.076406405       -0.3254324072         2.624495153    
X2     0.2602832971        -1.094566448         2.624225115    
X3    -0.5582321783        -1.857073883         2.606732494    
X3      1.886046385        0.4463917863         2.607489692    
X3     -1.871360846       -0.4430512629        -2.479328484    
X3     0.5539177893         1.842760565        -2.478384543    
X3     0.1871688684        0.6186659356        -3.369215651    
X3     0.4432657362       -0.4704915065        -3.369135473    
X3    -0.6280656255       -0.1477345427        -3.369471077    
X1     0.8385258905E-03   -0.5480485508E-04    -2.477092081    
X2     -1.177994887         1.250586327        -1.849832543    
X2    -0.1024390174E-02    0.5211696267E-03     2.644413213    
X2      1.176881753        -1.249639148         1.989000048    
X2     0.4925169488         1.645436836         1.988210253    
X2      2.398505892       -0.3774176569        0.9278521913    
X2     -1.671999507       -0.3950715837         1.987624750    
X2     0.2342714375        -2.417104293        0.9270172037    
X2     -2.211046049         1.005196186        0.9255523738    
X2     0.8736243376        -2.266121406       -0.7909341076    
X2    -0.8733640917         2.266328603        0.9260007155    
X2      2.210676757        -1.005870598       -0.7904632436    
X2     -2.398622723        0.3764737568       -0.7925838826    
X2    -0.4929009845        -1.646271331        -1.849482526    
X2    -0.2337593139         2.417164641       -0.7916521191    
X2      1.673106197        0.3953622632        -1.848797966    
X2     0.8233813701        0.7638081864        -2.480671047    
X2    -0.3492944338         2.010746157        -1.836318390    
X2    -0.8101355350       -0.7757462878        -2.481595923    
X2     -1.985753352        0.4683015107        -1.836846159    
X2     0.2514394003        -1.094489518        -2.480758746    
X2     -2.077054819         1.379976374        -1.188305685    
X2      1.078137011       -0.3149400911        -2.480844727    
X2     -1.254119353         2.155582849        -1.187979011    
X2    -0.2576889662         1.096669609         2.623524434    
X2      2.076542708        -1.380544167         1.324458832    
X2    -0.8219047553       -0.7698953957         2.623649052    
X2     0.3497003790        -2.013075383         1.971710284    
X2     -1.079938858        0.3214632475         2.623375579    
X2      1.254462897        -2.155359866         1.324076631    
X2     0.8165081984        0.7744124453         2.624101419    
X2      1.987960465       -0.4691295356         1.972361741    
X2     -1.401521178        -1.487704886         1.970937354    
X2    -0.6773366791        -2.255808554         1.568181471    
X2    -0.5892174209         1.957406079         1.970766097    
X2      2.469273960        -1.287761607        0.2686396678    
X2     -1.919553823        0.7030173750         1.970419516    
X2      1.139254152        -2.541418996        0.2680635904    
X2      1.567430506         1.310410248         1.971890474    
X2      2.291497994        0.5419198429         1.569239991    
X2     -1.616287117         1.713992538         1.567211797    
X2      1.889838132        -2.005089575       -0.3850244470    
X2     -2.234603696        -1.108757488         1.322470200    
X2    -0.7917628566        -2.639103595        0.5204885810    
X2     -2.494653162       -0.9420401569E-02     1.322317071    
X2     0.1200459009        -2.782324750       -0.1317643155    
X2     0.1561017744         2.489560717         1.323102465    
X2      2.770251099       -0.2843783679       -0.1308377044    
X2      1.238381092         2.164892533         1.323754059    
X2      2.681110259        0.6338724882        0.5217669066    
X2     -2.349948507        -1.494850161        0.2665334016    
X2     -1.631158136        -2.256948336       -0.1325590085    
X2     -1.890127142         2.004937800        0.5193388583    
X2      1.613704266        -1.711695860        -1.435253721    
X2      1.630948124         2.257395541        0.2681060778    
X2      2.349541597         1.494940584       -0.1309227776    
X2     -2.770557714        0.2837657817        0.2661118346    
X2    -0.1558270838        -2.489500265        -1.187020552    
X2    -0.1197848577         2.782609285        0.2671782404    
X2      2.494611268        0.8784926107E-02    -1.186140624    
X2     -2.469333820         1.286944940       -0.1334666893    
X2     0.5882091471        -1.954878407        -1.835650200    
X2     -1.138953699         2.541206631       -0.1328615029    
X2      1.917131001       -0.7021558699        -1.835271598    
X2     -2.680972599       -0.6341871797       -0.3871787579    
X2     -1.238710216        -2.164659035        -1.187490413    
X2     0.7917222480         2.639057729       -0.3858159916    
X2      2.234531098         1.109158117        -1.186178224    
X2     -1.565163217        -1.308948110        -1.836717635    
X2     -2.288035282       -0.5415919957        -1.437027886    
X2      1.399935607         1.486045093        -1.835465925    
X2     0.6763863144         2.252694040        -1.435862829    
X3     -1.331198846         1.411518672         2.605883342    
X3      2.151519127        -2.283245990        0.6673150140    
X3     0.9009368571         3.005322524        0.6663382506    
X3      3.053260218        0.7219158765       -0.5295767291    
X3     -3.053390405       -0.7221275755        0.6648797386    
X3    -0.9009926936        -3.005057096       -0.5309875464    
X3     -2.151530826         2.282819028       -0.5323447937    
X3      1.320611166        -1.400394111        -2.477877034    
X2     0.5010691398E-04   -0.5478862379E-05    0.7040322832E-01
X1    -0.1810141958       -0.6022725470        0.8922822096    
X1     0.4321415110       -0.4582628169       -0.7507168399    
X1     0.6116676305        0.1447988223        0.8925072956    
X1    -0.4316705860        0.4577848676        0.8920142081    
X1     0.1812820290        0.6029934898       -0.7508565190    
X1    -0.6123023795       -0.1450168977       -0.7511953766    
X1     0.6977750758       -0.7404915883        0.2640862835    
X1    -0.9902624419       -0.2341597870        0.2632774815    
X1     0.2922355171        0.9746532559        0.2637658354    
X1     0.9901519298        0.2340743326       -0.1244033269    
X1    -0.2921389777       -0.9745650896       -0.1247998765    
X1    -0.6976710685        0.7403686733       -0.1252395658    
X1    -0.4424547310        0.4701343940        -1.607243971    
X1    -0.1848976217       -0.6190291575        -1.607257117    
X1     0.6294751927        0.1485571182        -1.606908524    
X1    -0.6268332952       -0.1478143121         1.752787222    
X1     0.1841836806        0.6166136094         1.753018553    
X1     0.4405796556       -0.4680148426         1.753333832    
X1     0.5286751042        -1.373779601         1.109971117    
X1     -1.198328231       -0.8557592030         1.109125568    
X1      1.339627856       -0.6094852008         1.110238750    
X1    -0.1427409103         1.465582564         1.109316255    
X1     0.9247296435         1.145340351         1.109917060    
X1     -1.454783597        0.2287057017         1.108911541    
X1    -0.4841177614        -1.613241343        0.7120428619    
X1      1.638820867        0.3875790837        0.7127517538    
X1     -1.155515323         1.225743233        0.7113421026    
X1     0.4151470196        -1.754597551        0.6880000956E-01
X1     -1.312133135        -1.236447864        0.6799171861E-01
X1      1.726827043       -0.5182561448        0.6922328307E-01
X1     -1.726947828        0.5176336280        0.6762849692E-01
X1      1.311866141         1.236731985        0.6903317429E-01
X1    -0.4147130949         1.754661651        0.6806028770E-01
X1      1.155716664        -1.226066436       -0.5745345266    
X1     -1.639109146       -0.3879109173       -0.5758556270    
X1     0.4842490093         1.613661340       -0.5750025311    
X1      1.455325047       -0.2291604863       -0.9705091889    
X1     0.1431121858        -1.466069491       -0.9709638333    
X1    -0.9252793908        -1.145607893       -0.9714400736    
X1     -1.340445431        0.6092335672       -0.9717268146    
X1      1.198691906        0.8564897033       -0.9706273297    
X1    -0.5285786736         1.374515274       -0.9715165965    
X1    -0.3665002979        -1.219363390         1.735297242    
X1    -0.8739742329        0.9268321730         1.734748519    
X1     0.3657840462         1.216871565        -1.597404137    
X1     0.8721144570       -0.9246997681        -1.597109255    
X1     -1.235619861       -0.2925967798        -1.598106144    
X1      1.238384056        0.2931410194         1.735797709    
X1      1.412769294        -1.499289849        0.4620693228    
X1     -2.004991896       -0.4741402880        0.4604555267    
X1     0.5915982405         1.973418579        0.4614314496    
X1    -0.5915274630        -1.973159247       -0.3248833747    
X1      2.004798566        0.4739913163       -0.3239912551    
X1     -1.412674298         1.498946155       -0.3257266059    
