 150
    -893.3102051    
X2      1.064446527         2.182920351        0.9263330628    
X2    -0.4417991211        -2.387882896        0.9269976056    
X2     -1.064852669        -2.182648652       -0.7912248840    
X2     0.4412227295         2.387992523       -0.7919465867    
X2     -1.100478333       -0.2213421945        -2.480985018    
X2    -0.7538104303        0.8314265724        -2.480913763    
X2      1.102441181        0.2273727146         2.623849830    
X2     0.7513636157       -0.8377497676         2.623988585    
X3     0.3949722274        -1.898154245         2.606989743    
X3      1.446357475         1.291813813         2.606553896    
X3    -0.3920567867         1.883061762        -2.478993161    
X3     -1.435064384        -1.281954463        -2.478320352    
X3    -0.1324464168        0.6318202670        -3.369277453    
X3     0.6136850163       -0.2022873062        -3.369085802    
X3    -0.4817378895       -0.4313673142        -3.369253818    
X1    -0.4154480304E-04   -0.4281652921E-03    -2.477150726    
X2     -1.632273076        0.5376068246        -1.849433910    
X2    -0.1658343016E-03    0.3690856932E-03     2.644286456    
X2      1.630903678       -0.5372170014         1.988436729    
X2    -0.3500073439         1.681634754         1.987966508    
X2      2.288808330        0.8115503653        0.9267630051    
X2     -1.281151529        -1.143526097         1.988314986    
X2      1.358017067        -2.013056889        0.9271809272    
X2     -1.847088798         1.576754666        0.9264736219    
X2      2.422684480        0.1690379480       -0.7912737004    
X2     -2.422583184       -0.1693231631        0.9266538530    
X2      1.847711047        -1.576140119       -0.7909893300    
X2     -1.357618283         2.013456755       -0.7917867453    
X2      1.282033317         1.144387217        -1.849544457    
X2     -2.288732567       -0.8120461055       -0.7913509247    
X2     0.3506275348        -1.682799384        -1.849055610    
X2      1.097447548        0.2362585279        -2.480834496    
X2     -2.130309267         1.297170830        -1.187398709    
X2     0.7417445785       -0.8430093759        -2.480792379    
X2     -2.484205158        0.2232441524        -1.187252565    
X2    -0.3434145229        -1.069053413        -2.480709204    
X2     -1.969739610       -0.5349138456        -1.836069172    
X2     0.3590370273         1.062855231        -2.481205988    
X2     -1.265966476         1.600725989        -1.836336147    
X2    -0.7480276032        0.8417290631         2.623658634    
X2      2.483997833       -0.2236536810         1.323644091    
X2    -0.3548905010        -1.068084026         2.623953826    
X2      1.267336422        -1.602612417         1.971710060    
X2     -1.101758724       -0.2314867296         2.623790498    
X2      2.130394081        -1.296642688         1.323831792    
X2     0.3498875705         1.070306586         2.623685924    
X2      1.972041952        0.5355665667         1.971391296    
X2     -2.022025045       -0.2959636267         1.971259838    
X2      2.212669526        -1.691303044        0.2679362199    
X2     0.7543624994         1.899427490         1.970974882    
X2      1.756797984         1.568868147         1.568015084    
X2     -1.449599838         1.440607624         1.971132927    
X2      2.784630570        0.4465837218E-01    0.2677253800    
X2     0.4799535805        -2.305649566         1.568579199    
X2    -0.5226568022        -1.975346332         1.971540933    
X2     -2.237025022        0.7374816034         1.567999755    
X2      2.616909837       -0.8622427102       -0.3855576838    
X2     0.5787909254E-01     2.493748687         1.322830752    
X2      2.055211474         1.835200566        0.5203777567    
X2     -2.188400583        -1.196502774         1.323481892    
X2      1.431253644        -2.388855969       -0.1315504097    
X2     -1.048084741         2.263504929         1.322997674    
X2      2.570961548         1.070101375       -0.1320018469    
X2     -1.435976618        -2.039269908         1.323619654    
X2     0.5615995630        -2.697386399        0.5209723160    
X2     -1.430982835         2.389431686        0.2670330454    
X2      2.188654186         1.196271355        -1.187301801    
X2     -2.616892427        0.8625616386        0.5203751851    
X2      2.234088762       -0.7361964067        -1.435714231    
X2     -2.571127814        -1.070513751        0.2675988369    
X2      1.048901926        -2.263278811        -1.186682031    
X2     0.3584179236         2.762017813        0.2668738660    
X2      1.353219142         2.433933513       -0.1324265093    
X2     -1.353764747        -2.433948071        0.2676913154    
X2    -0.3587915912        -2.761630556       -0.1317593171    
X2     -2.784457733       -0.4494826704E-01   -0.1320847202    
X2      1.448203342        -1.438846630        -1.835641515    
X2     -2.212177964         1.691590892       -0.1323535074    
X2      2.019666890        0.2957620363        -1.835977476    
X2     -2.055180440        -1.835151451       -0.3857630635    
X2    -0.5803220832E-01    -2.493709512        -1.186861102    
X2    -0.5616229457         2.697364998       -0.3865907764    
X2      1.435638132         2.039631991        -1.187448765    
X2    -0.7531914107        -1.897193179        -1.835825945    
X2     -1.754313579        -1.566716724        -1.435885208    
X2     0.5220552000         1.972872391        -1.836548773    
X2    -0.4793312107         2.302370374        -1.436615293    
X3     -1.841866899        0.6072688031         2.606504532    
X3      2.979707365       -0.9818781132        0.6667222411    
X3     -2.340309820        -2.089617928        0.6665129022    
X3     0.6395982168        -3.071480693       -0.5303827201    
X3    -0.6395171824         3.071743570        0.6655524534    
X3      2.340172194         2.089515853       -0.5310170712    
X3     -2.979614158        0.9819002254       -0.5310561777    
X3      1.827735569       -0.6026098254        -2.478168136    
X2    -0.6172482287E-05    0.3756053587E-04    0.7033210313E-01
X1    -0.5973621814        0.1969822776        0.8921330959    
X1     0.5980665720       -0.1971685528       -0.7508473419    
X1     0.4690320039        0.4190106736        0.8921467854    
X1    -0.4695953105       -0.4194669560       -0.7509016866    
X1     0.1281116579       -0.6155648761        0.8923066856    
X1    -0.1282902982        0.6162781812       -0.7510525514    
X1    -0.2074336682        0.9962320032        0.2634220490    
X1    -0.7590312075       -0.6776905943        0.2637150591    
X1     0.9663746413       -0.3184178014        0.2637795138    
X1     0.2073857074       -0.9960606826       -0.1247020274    
X1     0.7588825802        0.6776196872       -0.1249762677    
X1    -0.9662955690        0.3184034472       -0.1249867368    
X1     0.1318632686       -0.6328659225        -1.607010817    
X1     0.4820578870        0.4299953086        -1.607172486    
X1    -0.6136596821        0.2019341529        -1.607151184    
X1    -0.1312601503        0.6302001196         1.752867689    
X1    -0.4800690433       -0.4282889311         1.753016590    
X1     0.6109705354       -0.2011223252         1.753039087    
X1     -1.387663677       -0.4918224612         1.109547352    
X1    -0.8232540964         1.220763754         1.109316247    
X1     0.2676797232         1.447891394         1.109249931    
X1      1.119771927       -0.9555350671         1.109796114    
X1    -0.6454592510        -1.323121647         1.109686620    
X1      1.468571697        0.1028872328         1.109628486    
X1     0.3432708135        -1.648861513        0.7122716255    
X1     -1.599719773        0.5273099499        0.7118625052    
X1      1.256301328         1.121921317        0.7118635549    
X1     -1.200658812         1.345070827        0.6815203082E-01
X1    -0.5645208682        -1.712330721        0.6861815609E-01
X1     0.5640353685         1.712524487        0.6810722855E-01
X1      1.765112467        0.3673092474        0.6847567328E-01
X1     -1.765078644       -0.3677431249        0.6845388059E-01
X1      1.201014446        -1.344689216        0.6875525331E-01
X1      1.600198564       -0.5272765518       -0.5749520079    
X1     -1.256672985        -1.122180504       -0.5750446726    
X1    -0.3433919836         1.649296865       -0.5755558849    
X1    -0.2681074885        -1.448429156       -0.9709556780    
X1     0.8241304240        -1.221010478       -0.9708451176    
X1      1.388428621        0.4917628764       -0.9711966911    
X1     0.6453727265         1.323919096       -0.9713890057    
X1     -1.120101967        0.9563034049       -0.9713602959    
X1     -1.469283636       -0.1033237707       -0.9711795289    
X1     -1.209385672        0.3987871384         1.735090702    
X1     0.9496443706        0.8482569801         1.735133130    
X1      1.206901368       -0.3979312068        -1.597357600    
X1     0.2593832358        -1.246295412         1.735414270    
X1    -0.9476105853       -0.8465045244        -1.597417489    
X1    -0.2588824996         1.243573354        -1.597785799    
X1    -0.4199645535         2.017059259        0.4608392846    
X1     -1.536767874        -1.372134424        0.4614512689    
X1      1.956623531       -0.6447137938        0.4616082179    
X1     0.4199375022        -2.016737868       -0.3245490605    
X1      1.536570801         1.371986156       -0.3250323418    
X1     -1.956451859        0.6446930201       -0.3250225086    
 150
    -885.2821886    
X3      2.243615225         2.191112803        0.5613964896    
X3      2.244517152        -2.189959769       -0.5617800731    
X3      2.243388428         2.191718859       -0.5604447763    
X3      2.244522862        -2.190568173        0.5600217659    
X3     0.6209642708        -3.127817361       -0.5623263718    
X3     0.6194743588         3.128113182        0.5621301434    
X3     0.6210310199        -3.128258198        0.5599278253    
X3     0.6193839728         3.128524866       -0.5599145196    
X3     -2.543952971       -0.9250374314         1.470220289    
X3     -2.544509610        0.9237890565        -1.469840139    
X3     -2.544175430       -0.9238714486        -1.470439060    
X3     -2.544264471        0.9226186709         1.471191707    
X2      2.227142986        0.8262575212E-03   -0.5574497037    
X2      2.227257818        0.2690092874E-03    0.5569694580    
X1    -0.4113457838        -1.629853698       -0.5920888743E-03
X1    -0.4120450164         1.629417253        0.6825219915E-03
X1     0.8474165801        0.5490557993         1.777560367    
X1     0.8470546458        0.5502989630        -1.777387205    
X1     0.8473431282       -0.5485151959        -1.777796520    
X1    -0.7343091272        -1.095165295       -0.8886144394    
X1    -0.7342226605        -1.095766082        0.8878779488    
X1     0.2161524598         1.646421239        0.8890510934    
X1     0.2159313731         1.647059557       -0.8878492032    
X1     0.2167296572        -1.646415491       -0.8891071659    
X1     0.8475954980       -0.5497340716         1.777137448    
X1    -0.7345823551         1.094621387        0.8887802862    
X1    -0.7347555369         1.095253271       -0.8877322843    
X1    -0.1016169089       -0.5635462694E-03     1.783212533    
X1     0.2167980577        -1.647016708        0.8878227846    
X1    -0.1019224214        0.6291805664E-03    -1.783211292    
X1     -1.368851468       -0.5080013385E-03    0.1547454091E-03
X1      1.468819775         1.648416165        0.4452197933E-03
X1      1.469550336        -1.647718358       -0.7263592073E-03
X2      1.911123741        0.5496046606        -1.468840306    
X2      1.911597178       -0.5485706866         1.468364301    
X2      1.911404051       -0.5474355694        -1.469187056    
X2      1.911459779        0.5484384835         1.468782448    
X3      2.229954360         1.093365370        0.5577591009    
X3      2.230397440        -1.092279097       -0.5582221188    
X3      2.229820984         1.093941739       -0.5575328272    
X3      2.230410256        -1.092861098        0.5570602554    
X1     -1.362967588        -1.082668913       -0.3038260229E-03
X1     -1.363354285         1.081689195        0.5970780206E-03
X1    -0.1012990800         1.096818791         1.778036453    
X1    -0.1016818695         1.098026769        -1.777166140    
X1    -0.1011666280        -1.096758976        -1.778030300    
X1    -0.1009272531        -1.097944644         1.777150431    
X1     0.5378489094        -2.186147551       -0.8666238864E-03
X1     0.5368372880         2.186263310        0.7856181786E-03
X2     0.8508990063         1.651382046         1.781229967    
X2     0.8513049568        -1.650790579        -1.781416003    
X2     0.8504270035         1.652659438        -1.780198313    
X2     0.8514623737        -1.652051898         1.780023343    
X1     -1.051712149        0.5469927413         1.778363233    
X1     -1.051839765       -0.5474836302        -1.778086183    
X1     -1.052047435        0.5482412407        -1.777654753    
X1     -1.051570573       -0.5487277567         1.777848800    
X2      1.171544418         2.208387238        0.8899123783    
X2      1.172436863        -2.207809477       -0.8901825208    
X2      1.171240036         2.209022648       -0.8885081011    
X2      1.172459827        -2.208419568        0.8883588062    
X1     -1.686046334       -0.5476068483        0.8885170335    
X1     -1.686298621        0.5466162312       -0.8881857894    
X1     -1.686130219       -0.5469375960       -0.8886045614    
X1     -1.686165913        0.5459496449        0.8890184078    
X3      1.592694667        0.1345473360E-02    -2.377704830    
X3      1.593154560       -0.4324503322E-03     2.377284341    
X3      1.917575019         1.650013932         1.471903064    
X3      1.918090474        -1.649034337        -1.472336695    
X3      1.917146237         1.651233466        -1.471216835    
X3      1.918201960        -1.650159749         1.470876633    
X3     0.5380343719       -0.6732605479E-03     2.682065803    
X3     0.5374944525        0.1136533538E-02    -2.682239122    
X2     -1.269655330        -2.018165937       -0.5589791537    
X2     -1.270449102         2.017282457        0.5591939548    
X2     -1.269534636        -2.018557881        0.5576917174    
X2     -1.270529078         2.017720917       -0.5573455722    
X3    -0.3232988591        -2.567193492       -0.5591215278    
X3    -0.3244290366         2.566858091        0.5590935467    
X3    -0.3232052450        -2.567574313        0.5572745915    
X3    -0.3245114694         2.567258665       -0.5570845715    
X2    -0.6344613695        -2.018411183        -1.470548620    
X2    -0.6351277280         2.018083087         1.470579857    
X2    -0.6342614282        -2.019402406         1.469156757    
X2    -0.6354233257         2.019108121        -1.468913893    
X3      1.594617757        -1.099896690        -2.379239342    
X3      1.594473996         1.100785627         2.378879839    
X3      1.594885988        -1.101621385         2.378123004    
X3      1.593931954         1.102601948        -2.378476383    
X3     0.5321899070         1.097688788         2.685624682    
X3     0.5322788958        -1.097251789        -2.685804820    
X3     0.5315903078         1.099535024        -2.684934355    
X3     0.5326365899        -1.099053528         2.684769224    
X3    -0.4209005621        0.5526256215         2.682633208    
X3    -0.4211215938       -0.5526810573        -2.682504279    
X3    -0.4214357710        0.5544580484        -2.682086516    
X3    -0.4206267683       -0.5544778244         2.682125098    
X2     -2.330058831        0.5437657616        0.4605841216E-03
X2     -2.330079959       -0.5451636733        0.2949136441E-05
X3      1.496318534        -2.769344947       -0.1121704163E-02
X3      1.495036629         2.770073778        0.8875372287E-03
X2     -1.584470797         1.468798186         1.471431438    
X2     -1.584162267        -1.469684746        -1.471108455    
X2     -1.584747572         1.469894313        -1.469906392    
X2     -1.583944610        -1.470770237         1.470299123    
X3     0.3150985237         2.575725600        -1.470913616    
X3     0.3166195187        -2.575465289         1.471029133    
X3     0.3154671355         2.574607076         1.472745806    
X3     0.3165065752        -2.574393575        -1.472975721    
X2     -2.007874111       -0.1132921644E-02     1.780737386    
X2     -2.008175261        0.1948676682E-03    -1.780297792    
X3     0.3014157740E-02     2.019401640         2.379925098    
X3     0.3438006059E-02    -2.019118442        -2.379996182    
X3     0.2477508305E-02     2.021065005        -2.378431021    
X3     0.3744222760E-02    -2.020755262         2.378494253    
X3    -0.9493399923         1.466598354         2.379574898    
X3    -0.9492505762        -1.466861993        -2.379392326    
X3    -0.9498242494         1.468225116        -2.378214546    
X3    -0.9488263261        -1.468451687         2.378463472    
X3     -2.222401609        -1.474423529       -0.5627111064    
X3     -2.222888912         1.473062138        0.5631851649    
X3     -2.222289549        -1.474863634        0.5619577832    
X3     -2.222957722         1.473538034       -0.5614768714    
X3     -1.369249048       -0.1303004837E-02     2.685767837    
X3     -1.369758488        0.6775151179E-03    -2.685464427    
X3     -2.656127560       -0.2615583037E-03   -0.8861665450    
X3     -2.656023990       -0.9585439919E-03    0.8866966944    
X3     -1.904176974        0.9170526783         2.379651868    
X3     -1.904395777       -0.9178357982        -2.379113387    
X3     -1.904667316        0.9187961650        -2.378451504    
X3     -1.903990569       -0.9195929984         2.378785429    
X1     0.5228328057        0.3646711662E-04   -0.8113659324E-04
X1    -0.4183084558       -0.5433345943       -0.1837621995E-03
X1      1.460935388        0.5485593400        0.8791398248E-05
X1    -0.4185357820        0.5428245720        0.2615028669E-03
X1      1.461205422       -0.5478871563       -0.3522103918E-03
X1     0.2131545614        0.5474986176        0.8897633021    
X1     0.2129990803        0.5481186739       -0.8894128350    
X1     0.2132699001       -0.5475203479       -0.8898407876    
X1     0.2133693611       -0.5481079817        0.8893265584    
X1     0.5267648574        -1.091904526       -0.4622423358E-03
X1     0.5262521720         1.092008547        0.3401136876E-03
X1      1.160648600        0.5982305745E-03   -0.8882885599    
X1      1.160789889       -0.2588515764E-04    0.8879899610    
X1      1.162654231         1.100479753       -0.8881303123    
X1      1.162858375         1.099825681        0.8886578211    
X1    -0.7344628100       -0.5808889552E-03    0.8895946256    
X1    -0.7345738185        0.3951644524E-04   -0.8894358937    
X1      1.163227421        -1.099260114       -0.8889090884    
X1      1.163297616        -1.099893158        0.8878668325    
 150
    -869.6042803    
X1     0.3254887445        -1.645163216       -0.6871918574E-01
X1     -1.743494120        0.3541000374        0.2834693184E-01
X2    -0.5451168513         2.198020860        0.1131720790    
X2      1.430438907        -1.728678582       -0.7465196590E-01
X1    -0.7750504791        -1.576101718       -0.6214144006E-01
X3      2.944281015       -0.9937618556        0.5103085826    
X3      2.939969478       -0.9447927087       -0.6002582758    
X3      1.889120406       -0.3768725820         2.365202168    
X3      1.878835825       -0.1529128062        -2.382086254    
X2     -2.362020251       -0.5591008389       -0.1352914919E-01
X2    -0.6559206254        0.1605100769         2.706780547    
X2    -0.6686484428        0.4138067859        -2.660944923    
X2     -1.884566396        -1.532306352       -0.6010962157E-01
X3      2.319017969         1.282016223        -1.993290030    
X3      2.327667519         1.088891483         2.110953774    
X2     -1.530255046        0.7696187135         2.436897813    
X2     -1.541863825        0.9938439948        -2.330511556    
X2    -0.9166510528         1.692228086         2.476873627    
X2    -0.9281743127         1.916562764        -2.286665860    
X2     -1.255926570       -0.7539133688         2.666609191    
X2     -1.267401069       -0.5018560784        -2.703781561    
X3     0.5095578220E-01     2.822276428         2.033410929    
X3     0.4228242113E-01     3.000533464        -1.742749527    
X3     0.8598730459        0.9081098776         3.329566579    
X3     0.8448770210         1.217700460        -3.216823292    
X3     0.3636550957E-01     2.137489540         2.895902900    
X3     0.2301226833E-01     2.400008023        -2.665818117    
X3     -2.144946489       -0.1500689127         2.387735919    
X3     -2.155581323        0.7223047955E-01    -2.364510290    
X3     0.2180475574        -3.174581291       -0.1665254671    
X3     0.2057669307        -3.076492506        -1.301934496    
X2      1.955465232        0.9710411125        0.6121240462    
X2      1.953402233         1.023733871       -0.5106163594    
X1    -0.2032668160        -1.352859788        0.8344019831    
X1     0.8942089849        -1.419368762        0.8286066426    
X1     -1.139523467         1.269524084        0.7043833538E-01
X1     -1.263829253       -0.6142060100       -0.1834948506E-01
X1    -0.1249788859       -0.1404234879         1.788133650    
X1     0.9699887972       -0.2051913964         1.774745489    
X1     -1.185847434        0.6018453978        0.9293058392    
X1      2.009317084       -0.8158023376       -0.3553019915E-01
X1     -1.190056677        0.6856484717       -0.8473818105    
X1    -0.2071284375        -1.265403481       -0.9396048698    
X1     0.4780586093        0.7711204508         1.823563331    
X1     0.8902712353        -1.332751476       -0.9450850343    
X1    -0.1333830177        0.2857871148E-01    -1.776802390    
X1     0.9624404016       -0.3658516235E-01    -1.774426439    
X1     0.4699052796        0.9392918989        -1.728847222    
X1    -0.5833502713         1.515339174        0.9694873489    
X1    -0.5876527165         1.599175919       -0.8038460602    
X2     0.5456071063         2.135267635        0.1073685630    
X2      1.408002002         1.410170281        -1.394400233    
X2      1.414336167         1.271996401         1.530533480    
X2      1.905815608        0.4267277972        -1.439791170    
X2      1.911818575        0.2889754440         1.481219915    
X2      2.448401895       -0.7335791446E-02    0.5604645239    
X2      2.446672593        0.4452467389E-01   -0.5538916068    
X2      1.462786425         2.006354635       -0.4665016993    
X2      1.465009315         1.953331910        0.6627181751    
X1     0.3605285263       -0.9463588730        -1.818949062    
X1     0.3681156228        -1.117603880         1.734821815    
X1    -0.6182699620        0.8377411758         1.828915319    
X1    -0.6268235440         1.005384768        -1.723190561    
X1     -1.795580484       -0.2276909059       -0.8935638388    
X1     -1.791897485       -0.3107523686        0.8917992217    
X1     -1.302507665        -1.288108610        0.8394063666    
X1     -1.303990400        -1.206696398       -0.9347200895    
X1     -1.217281035       -0.7315494177E-01     1.790784242    
X1     -1.225148034        0.9397019651E-01    -1.768410002    
X1    -0.7294331473        -1.052503434         1.740639733    
X1    -0.7362829362       -0.8863195988        -1.812668253    
X1    -0.1160871921E-01     1.742477672         1.862766598    
X1    -0.2019720831E-01     1.909486631        -1.674340854    
X2      1.471056217        -1.183440908         1.731383512    
X2      1.461639170        -1.016283490        -1.826036452    
X2      2.004696709        -1.495465703        0.8191421098    
X2      1.997038752        -1.415306264       -0.9496506511    
X2     0.2090033973E-01     2.445274903         1.001772385    
X2     0.1611703110E-01     2.528108120       -0.7511040355    
X2      2.420126940       -0.6857608033         1.442062520    
X2      2.412078866       -0.5492542429        -1.494698248    
X2      1.384268692        0.5938132398         2.407604238    
X2      1.373823047        0.8178004981        -2.331223440    
X2     0.9199333563         2.402656320        -1.355893714    
X2     0.9270568108         2.263611562         1.588377453    
X2     0.4497419129        0.9383345468E-01     2.695404865    
X2     0.4374052255        0.3473982796        -2.660256906    
X2     0.2952266229        -2.011108517        -1.558884517    
X2     0.3012711656        -2.163591117         1.373341844    
X2    -0.2698664936        -2.396840549        0.4540577522    
X2    -0.2747550909        -2.328246069       -0.6597137533    
X2     0.8279160801        -2.471610158        0.4494908996    
X2     0.8288024202        -2.406984941       -0.6721128711    
X2     -2.074852805         1.205027752        0.6327123003    
X2     -2.077456099         1.258437064       -0.4911209047    
X2     -1.502072487         1.445345469         1.559587440    
X2     -1.509131898         1.584767692        -1.393849511    
X2     -1.474738480         2.177780592       -0.4549146645    
X2     -1.472340729         2.123885234        0.6805299307    
X2     0.8975656272         1.582355513         2.453069256    
X2     0.8864368780         1.806141953        -2.280926343    
X2    -0.5213517445E-01     1.062764094         2.737196170    
X2    -0.6470108062E-01     1.315169208        -2.608649270    
X2    -0.1576804539       -0.8252574328         2.656519441    
X2    -0.1694434066       -0.5713652949        -2.706299094    
X2     0.9316840658       -0.6249127630        -2.713045179    
X2     0.9431385629       -0.8799477396         2.652901267    
X2    -0.7982238263        -1.963502223        -1.553248285    
X2    -0.7955854608        -2.097196522         1.379696265    
X3      1.392644302        -2.098507725        -1.565599367    
X3      1.404593915        -2.234011210         1.366059437    
X2    -0.2351611239        -1.635479417        -2.449631522    
X2    -0.2248474819        -1.860079526         2.298931353    
X2     -2.110284172        0.5274021507         1.516513933    
X2     -2.116807893        0.6661849732        -1.434399363    
X3     0.8649431779        -1.697979523        -2.455464350    
X3     0.8763560991        -1.923671695         2.292411583    
X2    -0.8900639044         2.367546857         1.603383492    
X2    -0.8972277286         2.507139948        -1.353863305    
X2     -1.831241643       -0.9874028491         1.750679035    
X2     -1.837495125       -0.8213509461        -1.811364946    
X2     -1.363979029        -2.342232428        0.4603258550    
X2     -1.365437068        -2.290374809       -0.6565749069    
X3     -2.683601716        0.2866709414        0.5973482451    
X3     -2.686008016        0.3404852507       -0.5398867884    
X3     -2.420462427        -1.216715251        0.8522230658    
X3     -2.422810278        -1.134277393       -0.9367451799    
X3     -1.335382697        -1.574103860        -2.440577828    
X3     -1.326201596        -1.796076412         2.303688498    
X3     -1.903966025        -1.899628692        -1.541809163    
X3     -1.900698456        -2.035462778         1.380620246    
X1     0.4290679663        0.2312787012        0.1814688623E-01
X1    -0.6567286359        0.2953197273        0.2343332916E-01
X1     0.3946854880       -0.3557753328       -0.9000923619    
X1      1.515755223        0.1633723796        0.1222723543E-01
X1     0.3985214606       -0.4412820126        0.8771428757    
X1    -0.9257499894E-01    0.5352952318        0.9246669425    
X1     0.9957659300        0.5548790715       -0.8550101998    
X1     0.9995518832        0.4706567332        0.9150161554    
X1    -0.9668797162E-01    0.6198298971       -0.8536183564    
X1      1.026818328         1.142663011        0.5964169969E-01
X1    -0.5724514929E-01     1.209367478        0.6525248168E-01
X1     0.9210429150       -0.7442258784       -0.2869753436E-01
X1    -0.1694565421       -0.6753079125       -0.2295484295E-01
X1    -0.6947403546       -0.3760197954        0.8828037739    
X1    -0.6988439756       -0.2915043708       -0.8951783636    
X1      1.495397195       -0.5091569116        0.8688951332    
X1      1.491388034       -0.4250261725       -0.9037851994    
X1     0.5090304866         1.450908962        0.9609046898    
X1     0.5049529533         1.534619289       -0.8063215859    
