 150
    -889.8308479    
X2     -2.078328994        -1.253687105        0.9234585743    
X2      2.365323978        0.5943214563        0.8899239240    
X2     -2.362424996       -0.5985406600       -0.7713018556    
X2      2.079115947         1.250842817       -0.8031456491    
X2     0.9700555051E-01     1.177413284        -2.461283550    
X2    -0.9407693721        0.7699573924        -2.453509289    
X2     0.9444762961       -0.7631730694         2.576164995    
X2    -0.9111678254E-01    -1.193719805         2.584275639    
X3     -1.127060461        -1.616812288         2.575545291    
X3      1.974459196       -0.3271149423         2.551184704    
X3     -1.968710987        0.3269731272        -2.430451628    
X3      1.117811932         1.615097442        -2.455907968    
X3     0.5510638895        0.1878151170E-01    -3.394938650    
X3    -0.3539021683        -2.001878454        -2.962212997    
X3    -0.3150964619         2.181919824        -2.656711826    
X1    -0.5810057577E-01    0.8128394533E-01    -2.494337549    
X1    -0.6971948556         1.633787701        -1.786196515    
X2     0.5254444291E-01   -0.7832903824E-01     2.635191061    
X2     0.6983014626        -1.643369164         1.919102259    
X2      1.083020118         1.304754293         1.999300318    
X2      2.127466466        -1.227620506        0.8399013171    
X2     -1.663378390        0.1624306875         2.020442291    
X2    -0.6191819978        -2.369775366        0.8627604497    
X2     -1.693141801         1.694682082         1.004866066    
X2    -0.2221437805E-02    -2.404178110       -0.8654973719    
X2     0.4159544676E-02     2.400703933        0.9913559871    
X2      1.693595364        -1.697307098       -0.8840809364    
X2     -2.127263734         1.224145561       -0.7183681566    
X2     -1.071581441        -1.310929542        -1.886859825    
X2     0.6203333820         2.367128771       -0.7393535229    
X2      1.664847924       -0.1657534084        -1.898399905    
X2     0.9924968673        0.5038902413        -2.496168325    
X2     0.3500627039         2.056660271        -1.782193338    
X2     -1.086458920       -0.3555401460        -2.485415765    
X2     -1.731007735         1.198282200        -1.771549341    
X2    -0.1898906011        -1.015593607        -2.521372272    
X2     -1.478522741         2.060798592        -1.104462302    
X2     0.8479193303       -0.6066721873        -2.526398016    
X2    -0.4347942999         2.493294651        -1.118590821    
X2     0.2002383173         1.037797154         2.645050089    
X2      1.479642000        -2.063617891         1.225564962    
X2    -0.9883073200       -0.5078064912         2.622879333    
X2    -0.3462779871        -2.064259000         1.910914833    
X2    -0.8431074917        0.6037746019         2.653123664    
X2     0.4363866824        -2.497328136         1.234445668    
X2      1.090544502        0.3567105078         2.606662928    
X2      1.732789773        -1.199751732         1.894117578    
X2     -1.797766846       -0.9543047559         1.972663002    
X2     -1.401330442        -1.916111037         1.532939266    
X2     0.1817336946         1.979548417         2.020638081    
X2      1.857684352        -2.084094841        0.1608043672    
X2     -1.506183846         1.277363444         2.033828397    
X2     0.1697263189        -2.786413454        0.1765808635    
X2      1.969219151        0.6122692963         1.943863301    
X2      2.365955779       -0.3496467716         1.503198172    
X2    -0.8728062453         2.127624453         1.642667912    
X2      1.048722276        -2.530762293       -0.4886217672    
X2     -2.455776764       -0.2861861354         1.357615398    
X2     -1.665578892        -2.202481237        0.4809823005    
X2     -2.309325335        0.8339461521         1.388521578    
X2    -0.8769425685        -2.639086137       -0.1995008729    
X2      1.053792118         2.232975338         1.362715084    
X2      2.485946916        -1.240541683       -0.2275384957    
X2      1.950938200         1.546806685         1.324309436    
X2      2.741194965       -0.3699664978        0.4462351332    
X2     -2.721535170       -0.5747727717        0.2970340448    
X2     -2.327447573        -1.529155480       -0.1408903464    
X2     -1.046750517         2.527910297        0.6086746349    
X2     0.8741809422        -2.129869380        -1.523003533    
X2      2.329141236         1.526254131        0.2595484749    
X2      2.722662492        0.5714501049       -0.1777216402    
X2     -2.485458857         1.237268382        0.3479580157    
X2     -1.050930847        -2.235706761        -1.241277734    
X2     0.8781887366         2.636579324        0.3222602617    
X2      2.309529769       -0.8376602338        -1.268512757    
X2     -1.855873512         2.081006918       -0.4031205311E-01
X2    -0.1755697207        -1.980864968        -1.883180976    
X2    -0.1681082380         2.782714710       -0.5532477811E-01
X2      1.503825806        -1.282309586        -1.914447994    
X2     -2.739968923        0.3659654190       -0.3265323629    
X2     -1.944241375        -1.550410391        -1.207119325    
X2      1.666406896         2.199788209       -0.3597491065    
X2      2.456425560        0.2833022990        -1.237528369    
X2     -1.961427125       -0.6157131814        -1.825312709    
X2     -2.362486510        0.3456354640        -1.383238586    
X2      1.797518276        0.9530208894        -1.852228361    
X2      1.402117170         1.912706385        -1.411999262    
X3    -0.6921023885         1.712344332         2.666068455    
X3      1.216444583        -2.914621830        0.5489601748    
X3      1.919728073         2.471722539        0.6956418367    
X3      3.098223266       -0.3880053248       -0.6142083025    
X3     -3.097797430        0.3843978281        0.7335711224    
X3     -1.917435670        -2.474282432       -0.5754858130    
X3     -1.213294514         2.911233876       -0.4299870615    
X2     0.6756436263        -1.713545718        -2.548817188    
X1     0.8163795659E-03   -0.1548752661E-02    0.6257979971E-01
X1    -0.3648856085       -0.5253088401        0.8770698886    
X1     0.2257099129       -0.5570102845       -0.7814963899    
X1     0.6408011919       -0.1071262959        0.8690158339    
X1    -0.2239058259        0.5542367539        0.9065646233    
X1     0.3670450573        0.5218909695       -0.7517892545    
X1    -0.6400159462        0.1041404076       -0.7432466889    
X1     0.3947959010       -0.9461624752        0.2197850478    
X1     -1.004080258        0.1239428369        0.2805600859    
X1     0.6230889011        0.8004446810        0.2676566342    
X1      1.005428285       -0.1269516284       -0.1570223709    
X1    -0.6219623520       -0.8028238616       -0.1432608085    
X1    -0.3934301419        0.9429422283       -0.9535328664E-01
X1    -0.2808595078        0.6444723185        -1.592251257    
X1    -0.4262760772       -0.4620461791        -1.623052313    
X1     0.6048669105       -0.3427964234E-01    -1.634889300    
X1    -0.6033848307        0.3110992596E-01     1.759833373    
X1     0.4256553425        0.4590511151         1.751807625    
X1     0.2814810951       -0.6454215175         1.721715054    
X1     0.2994370192E-01    -1.503861554         1.057658680    
X1     -1.401532981       -0.4093713469         1.118757025    
X1      1.058851049        -1.076059144         1.049125077    
X1     0.4074123027         1.387731126         1.136275712    
X1      1.292226073        0.7109940864         1.098100558    
X1     -1.257167920        0.6954449481         1.149191134    
X1     -1.010435855        -1.357891293        0.6851600102    
X1      1.683420800       -0.2376979654        0.6635462238    
X1    -0.6326278318         1.533916402        0.7636335430    
X1    -0.2329874026        -1.788289198        0.1399849316E-01
X1     -1.663963543       -0.6937335582        0.7315281450E-01
X1      1.431665031        -1.096325838       -0.1011160893E-02
X1     -1.430890290         1.093187539        0.1235207106    
X1      1.665148916        0.6908028935        0.4799866277E-01
X1     0.2343828994         1.785599131        0.1107705229    
X1     0.6335119321        -1.536932386       -0.6414904231    
X1     -1.682366628        0.2336262367       -0.5415495600    
X1      1.011913009         1.355174220       -0.5621288311    
X1      1.258389709       -0.6986388633        -1.027185838    
X1    -0.4068330167        -1.389561467        -1.010090521    
X1     -1.289329258       -0.7151190430       -0.9775505400    
X1     -1.059792582         1.072156315       -0.9227182921    
X1      1.403054243        0.4062064004       -0.9967418300    
X1    -0.2745929487E-01     1.500637247       -0.9309886184    
X1    -0.7397513740        -1.062151215         1.712188947    
X1    -0.4542855070         1.123870370         1.771680803    
X1     0.7409252269         1.057705029        -1.587915226    
X1     0.4549686753        -1.125326364        -1.647943491    
X1     -1.292893502        0.2146908876        -1.574257670    
X1      1.296608064       -0.2153341965         1.696147347    
X1     0.7987754579        -1.914259487        0.3813423037    
X1     -2.033797968        0.2520278500        0.5030927238    
X1      1.260760869         1.622388455        0.4779593553    
X1     -1.259170641        -1.625233766       -0.3554676304    
X1      2.034670948       -0.2552946755       -0.3821388153    
X1    -0.7968067523         1.911374170       -0.2606129706    
