  38
 [ 1] QUENCH NUMBER      1 final energy=     -168.1749682764 RMS force=    0.9046897292E-02
LA       -1.3646375675        0.8646610213       -0.2283230064
LA        1.6935800682       -0.1161430459        0.3073222198
LA       -2.0995558115        0.2038292147        0.3692560190
LA       -0.5969653593       -0.3044761550        1.5434040024
LA        0.2849498627        0.2475043678       -0.8237113788
LA       -1.1012144525        0.3687193161        0.7809968798
LA       -0.1228538643       -1.4895680677       -1.0231445418
LA        1.1717001739       -1.0812345363        0.3318249937
LA       -0.4978609143       -0.5086913719        0.4919618124
LA        0.9020091768       -0.0677701298       -1.6487250090
LA        1.5587074765        1.0004224817        0.0558868167
LA       -1.3090854452       -0.2637830701       -0.2211265493
LA        0.3983427008        1.3808279444        1.0213532150
LA        0.0127209331        0.7150945583       -1.7316879817
LA       -0.6068454545       -1.4253561657        1.0097003190
LA       -0.8152726622        0.2664191521       -1.0781722015
LA        1.3601049883       -0.4970043012        1.2880085018
LA        0.7471597256       -0.7796522857       -0.7408183252
LA       -0.1354029136       -0.4445815322       -1.5873874693
LA       -0.2971604079       -0.5706944541       -0.5326513551
LA       -0.5230512728        1.2917165633        0.4388538152
LA       -0.0005794283        0.3527277896        0.8969110445
LA        0.8336834222        1.1817424370       -0.9186036233
LA        0.4958157441        0.8504576270        0.0593993596
LA        0.1343174115       -1.3197949624        0.1047390816
LA        0.3386726686       -0.7868864648        1.0807815445
LA        0.6710217052       -1.1721832951       -1.7626104023
LA        1.0618115081        0.4979818356        0.9340908007
LA       -0.9678098067       -1.3129718963       -0.0893128829
LA       -1.4999758831       -0.6890226547        0.8030212286
LA        0.5412606747       -0.2158983089        0.1568604242
LA       -0.4396994167        0.3675678804       -0.0712059641
LA       -1.1071748958       -0.8609769725       -1.1591694067
LA       -0.2780786092        1.2058073758       -0.7136309648
LA        1.3212854418        0.1891919259       -0.6479608417
LA        0.4888947451        0.0437630507        1.8005339553
LA       -0.5602089798        0.9832451326        1.5472023525
LA        0.3073947180        1.8950099959       -0.0438664825
