    52
Energy=    -37.9728100101834    
HH        -5.438108188        -1.538845269        0.5049857133    
CH        -4.526088298        -2.124033640        0.3935123683    
HH        -4.498459660        -2.901856567         1.155661974    
HH        -4.504188914        -2.580635628       -0.5953781866    
C         -3.329205568        -1.217152315        0.5604114430    
O         -2.509673674        -1.097763051       -0.3493442347    
N         -3.211173888       -0.5937136793         1.733303507    
H         -3.930111195       -0.7520725197         2.425093103    
CA        -2.161203146        0.3846731972         2.048157025    
HA        -2.202602397         1.181144376         1.302894864    
CB        -2.484004195        0.9980046373         3.417105361    
HB        -2.453299012        0.2286252786         4.190449200    
HB        -1.751393463         1.770647468         3.655057672    
HB        -3.476276941         1.451205550         3.397113450    
C        -0.7281893521       -0.1955137457         2.015822972    
O         0.2352315564        0.5455566875         1.800369497    
N        -0.5773835860        -1.518085825         2.165536284    
H         -1.405576801        -2.065656720         2.351898421    
CA        0.7059684553        -2.226058518         2.091618905    
HA         1.393887816        -1.764167337         2.802233789    
CB        0.4673929586        -3.675863883         2.533368692    
HB       -0.2159180504        -4.171730038         1.841868011    
HB        0.4198763800E-01    -3.693655754         3.537931743    
HB         1.414860415        -4.216574032         2.545396902    
C          1.377328027        -2.164093656        0.6982546709    
O          2.589481794        -2.371941766        0.5898243033    
N         0.6208825323        -1.842005515       -0.3604866169    
H        -0.3727919842        -1.710770790       -0.2164810578    
CA         1.139730395        -1.627232663        -1.716391984    
HA         1.911044736        -2.373986353        -1.913430817    
CB       -0.7273051743E-02    -1.871670235        -2.705696058    
HB        0.3690908431        -1.809236900        -3.727498418    
HB       -0.7859273797        -1.120133969        -2.568940158    
HB       -0.4304482665        -2.864707081        -2.547990250    
C          1.792580215       -0.2376179783        -1.927603211    
O          2.435015983       -0.1947889823E-01    -2.960565447    
N          1.653193795        0.6809772476       -0.9575997939    
H          1.131949272        0.4035076140       -0.1366924841    
CA         2.103178726         2.081083339       -0.9921729810    
HA         1.724863449         2.549162009       -0.8150117650E-01
CB         3.639141223         2.116786617       -0.8841515614    
HB         4.092757402         1.746169815        -1.803912277    
HB         3.966584281         1.497385939       -0.4776403867E-01
HB         3.980667636         3.137433500       -0.7094147051    
C          1.524666021         2.928302447        -2.158541686    
O         0.7106462224         2.460270045        -2.964520871    
N          1.910711705         4.210991163        -2.221621597    
H          2.565692744         4.534798147        -1.522338154    
CH         1.461453636         5.174483299        -3.228385686    
HH         1.934358842         6.143643653        -3.057712534    
HH        0.3776859231         5.297052945        -3.173678600    
HH         1.727263068         4.824349152        -4.228055286    
    52
Energy=    -31.2020724372443    
HH        -5.838921215        -1.833888983         3.210521479    
CH        -5.135320537        -2.473752763         2.679263439    
HH        -4.557364084        -3.052908676         3.398425303    
HH        -5.681551149        -3.149138705         2.021734927    
C         -4.199189176        -1.613688460         1.861407499    
O         -4.142743246        -1.748236085        0.6395438564    
N         -3.455875344       -0.7367106961         2.536744767    
H         -3.581685532       -0.6850246561         3.537821956    
CA        -2.524667579        0.2131083804         1.912605758    
HA        -3.013285500        0.6463643670         1.037973760    
CB        -2.269591531         1.347170025         2.915090230    
HB        -1.771712350        0.9574922110         3.804478021    
HB        -1.635014556         2.107191357         2.456941398    
HB        -3.215341389         1.808764369         3.202932980    
C         -1.200546643       -0.4192435093         1.419359742    
O        -0.4852025706        0.2151240967        0.6432214614    
N        -0.8889096193        -1.644048887         1.870053103    
H         -1.554790367        -2.034126170         2.520658566    
CA        0.2452317901        -2.528580430         1.544202021    
HA        0.7540713914        -2.742270514         2.485885217    
CB       -0.3306253154        -3.863433792         1.044841440    
HB       -0.9158901929        -3.711141182        0.1367034696    
HB       -0.9740805933        -4.298925609         1.810792827    
HB        0.4823319069        -4.560477081        0.8353407425    
C          1.343816268        -1.989575975        0.5924561324    
O          2.462928311        -1.712558316         1.034865335    
N          1.050819386        -1.867944813       -0.7093118997    
H         0.1105384848        -2.092561281        -1.000686815    
CA         2.024447918        -1.530409605        -1.756583102    
HA         2.923768612        -2.125442785        -1.587506239    
CB         1.426025419        -1.962075109        -3.102108940    
HB         2.153408267        -1.796694575        -3.898012741    
HB        0.5277656906        -1.380625386        -3.315921716    
HB         1.173276500        -3.023078126        -3.074645647    
C          2.469989208       -0.4697859239E-01    -1.786984250    
O          3.463293303        0.2742299212        -2.448890227    
N          1.766679512        0.8393899612        -1.068299852    
H         0.9847716914        0.4727095790       -0.5376555643    
CA         1.950514505         2.297768744        -1.026416751    
HA         1.132221678         2.693015084       -0.4218335726    
CB         3.244854458         2.618205215       -0.2556640268    
HB         4.117070001         2.330289503       -0.8433867542    
HB         3.255910323         2.076781328        0.6915287099    
HB         3.301041351         3.685820550       -0.4146002510E-01
C          1.829831535         3.015685500        -2.398558159    
O          1.561904030         2.399339445        -3.437739643    
N          1.980708433         4.348213945        -2.396786721    
H          2.182283284         4.792438795        -1.510872939    
CH         1.882090071         5.206018799        -3.579211185    
HH         2.055587480         6.247850968        -3.302587349    
HH        0.8881229748         5.120511598        -4.023377689    
HH         2.627005007         4.910056820        -4.320892333    
    52
Energy=    -34.5658036375737    
HH        -4.944649189       -0.8702168498         4.688308054    
CH        -4.625303853        -1.728797762         4.098749135    
HH        -3.831836371        -2.256349768         4.626715196    
HH        -5.469763154        -2.399645975         3.944745361    
C         -4.105254994        -1.249974503         2.762528001    
O         -4.634697696        -1.631231102         1.719128249    
N         -3.061035769       -0.4217683003         2.794104268    
H         -2.701085329       -0.1526993961         3.698844227    
CA        -2.446996978        0.1837283053         1.604905848    
HA        -3.244320287        0.4810363724        0.9213483567    
CB        -1.714957797         1.457585961         2.050540222    
HB       -0.8937278540         1.203183477         2.722604860    
HB        -1.313028569         1.975731177         1.178897787    
HB        -2.408886993         2.125022501         2.563736860    
C         -1.510656823       -0.7622215471        0.8156765468    
O         -1.114159921       -0.4316357092       -0.3055299533    
N         -1.151441579        -1.922718013         1.382792337    
H         -1.524863101        -2.116017520         2.300555565    
CA       -0.2191787792        -2.910495057        0.8231040052    
HA        0.4511678720E-01    -3.588106501         1.636899312    
CB       -0.9463501654        -3.775589092       -0.2220794406    
HB        -1.286273010        -3.163234253        -1.058456837    
HB        -1.812954346        -4.252914702        0.2376892256    
HB       -0.2755160263        -4.553264382       -0.5905514530    
C          1.125171474        -2.289385102        0.3695598190    
O          1.938947382        -1.903162991         1.214237629    
N          1.364088665        -2.169428650       -0.9425916762    
H         0.6579112216        -2.501006300        -1.583863501    
CA         2.577939950        -1.572564539        -1.513597303    
HA         3.442619522        -1.975441140       -0.9830203187    
CB         2.674438749        -2.020011844        -2.977979762    
HB         3.601442712        -1.646626666        -3.415261077    
HB         1.830311741        -1.626734962        -3.546743070    
HB         2.674210419        -3.109530155        -3.035338223    
C          2.645820551       -0.2995858190E-01    -1.388572514    
O          3.732929852        0.5429712358        -1.519955850    
N          1.510473883        0.6293695729        -1.111017636    
H         0.6744036195        0.6884052308E-01   -0.9965766977    
CA         1.329782490         2.085248803        -1.011152671    
HA        0.2581158559         2.256492365       -0.8955430819    
CB         1.985241454         2.577373885        0.2926857532    
HB         3.071476458         2.518947586        0.2155008978    
HB         1.651835110         1.962438302         1.130128863    
HB         1.699984176         3.610744580        0.4917445961    
C          1.736914801         2.887253542        -2.277840377    
O          2.099618589         2.323872550        -3.318300508    
N          1.624556466         4.221881407        -2.210076443    
H          1.305831607         4.618328576        -1.336028543    
CH         1.934774045         5.147105585        -3.301605031    
HH         1.767519723         6.176886944        -2.979708545    
HH         1.296352799         4.939378793        -4.162905604    
HH         2.979108781         5.037309121        -3.601434859    
