    52
Energy=    -41.2338768086037    
HH        -4.156690011         1.392581954       -0.3120282090E-01
CH        -3.631103988        0.4650645199       -0.2548281362    
HH        -4.186687456       -0.3764632445        0.1571038123    
HH        -3.538138997        0.3489112522        -1.334034205    
C         -2.257013883        0.5096304217        0.3677810866    
O         -1.255127831        0.4121869133       -0.3381299483    
N         -2.200081018        0.6351723773         1.693323741    
H         -3.072249485        0.7058919790         2.198243242    
CA       -0.9525958403        0.7877140859         2.453804752    
HA       -0.4276565449         1.667155833         2.076090317    
CB        -1.322141150         1.047662428         3.919936748    
HB        -1.854779617        0.1888276738         4.331841691    
HB       -0.4152321087         1.216494316         4.502473939    
HB        -1.954607603         1.933740868         3.992415562    
C         0.1051367558E-01   -0.4139849640         2.320920863    
O          1.230356834       -0.2382323350         2.382073767    
N        -0.5164651355        -1.618927180         2.066765350    
H         -1.523896717        -1.696155421         2.048174089    
CA        0.2687199378        -2.831740923         1.801618120    
HA         1.024155278        -2.931393057         2.583208232    
CB       -0.6788564105        -4.034336098         1.901226753    
HB        -1.446289643        -3.973015855         1.127811119    
HB        -1.154707710        -4.052513693         2.882872150    
HB       -0.1144504786        -4.958514044         1.769015416    
C          1.014594530        -2.807772973        0.4442829773    
O          1.951133051        -3.586140826        0.2404629985    
N         0.6255721846        -1.906398994       -0.4673611036    
H        -0.1722671903        -1.325134812       -0.2384315677    
CA         1.240369396        -1.674196213        -1.779915322    
HA         2.113988379        -2.319688517        -1.881958510    
CB        0.2254485582        -2.090483630        -2.855226174    
HB       -0.6511388244        -1.442241868        -2.811159853    
HB        0.6785802204        -2.012995243        -3.844270391    
HB       -0.8289869956E-01    -3.124271270        -2.693317255    
C          1.755616197       -0.2222087330        -1.955720936    
O          1.995281985        0.2240240834        -3.082412284    
N          1.911055949        0.5219612388       -0.8493836454    
H          1.730213688        0.7083778478E-01    0.3622578451E-01
CA         2.294425713         1.940662136       -0.7997278156    
HA         2.121788433         2.261137938        0.2290874392    
CB         3.807949972         2.069172245        -1.042333084    
HB         4.126510638         3.095067647       -0.8537659721    
HB         4.350003912         1.406000523       -0.3669111171    
HB         4.047264113         1.806643805        -2.073343482    
C          1.412257588         2.885590478        -1.660103823    
O          1.890082533         3.899191410        -2.184066870    
N         0.1203632706         2.559511250        -1.813880800    
H        -0.2067181936         1.719438211        -1.346876888    
CH       -0.8557428723         3.321107159        -2.592702289    
HH        -1.832623356         2.836427147        -2.541097690    
HH       -0.9434156497         4.335083221        -2.197163405    
HH       -0.5426693235         3.373918794        -3.637434560    
    52
Energy=    -35.7486198152340    
HH        -5.368386321       -0.3801746443        0.7283561981    
CH        -4.609207572        -1.135560595        0.5291356398    
HH        -4.705812632        -1.946308734         1.250244713    
HH        -4.739191036        -1.526327418       -0.4794649967    
C         -3.239577223       -0.5111163234        0.6588008064    
O         -2.464595340       -0.5114361550       -0.2966808919    
N         -2.927249244        0.2253854772E-02     1.849219797    
H         -3.624141796       -0.4292891723E-01     2.579191030    
CA        -1.677074493        0.7177405427         2.138490235    
HA        -1.590075984         1.549851713         1.437389898    
CB        -1.783343420         1.298923989         3.554580053    
HB        -1.873948144        0.4937992854         4.285697774    
HB       -0.8903443699         1.884150957         3.779084728    
HB        -2.655455551         1.950775217         3.624713449    
C        -0.4054345581       -0.1473590116         1.979633911    
O         0.6772399884        0.3855065792         1.719882488    
N        -0.5301320174        -1.478079614         2.068746525    
H         -1.442065139        -1.848811616         2.295750658    
CA        0.5664437559        -2.434314255         1.875996246    
HA         1.380090739        -2.164064198         2.551656592    
CB        0.5360969410E-01    -3.822873473         2.279540968    
HB       -0.7617507170        -4.128178330         1.621546869    
HB       -0.3015597855        -3.803156511         3.310997733    
HB        0.8633803227        -4.549895611         2.202530585    
C          1.146311230        -2.442423704        0.4408939300    
O          2.281351841        -2.883738735        0.2385506274    
N         0.4053092313        -1.923876504       -0.5485891975    
H        -0.5296168978        -1.603232242       -0.3277957189    
CA        0.8656146305        -1.754635069        -1.932216162    
HA         1.483126552        -2.614569765        -2.197920028    
CB       -0.3675606379        -1.771210214        -2.845547184    
HB       -0.9957523695       -0.9029005145        -2.642746843    
HB       -0.5288441726E-01    -1.744354534        -3.889552800    
HB       -0.9437405826        -2.682125307        -2.677070035    
C          1.734963872       -0.4909405316        -2.158233252    
O          2.295504021       -0.3309736762        -3.245893378    
N          1.859345643        0.3767205251        -1.140545514    
H          1.384839227        0.1282198004       -0.2824940652    
CA         2.531055418         1.685067512        -1.129645820    
HA         2.334869954         2.110577764       -0.1435752594    
CB         4.054763757         1.496009051        -1.196678712    
HB         4.548128656         2.459422196        -1.061953151    
HB         4.380462366        0.8193332907       -0.4054880711    
HB         4.344425786         1.084354772        -2.163912419    
C          1.984637351         2.710970092        -2.155591608    
O          2.175079926         2.587404749        -3.370668937    
N          1.329617895         3.767473687        -1.652633064    
H          1.220239388         3.816178375       -0.6481955592    
CH        0.7551682745         4.853693918        -2.448899804    
HH        0.2712680562         5.582564923        -1.795716733    
HH         1.539322017         5.357324480        -3.018161340    
HH        0.1273095589E-01     4.457248730        -3.144760911    
    52
Energy=    -37.9728100101732    
HH        -5.515721140        -1.062666327        0.8022684411    
CH        -4.674202460        -1.720127896        0.5872274921    
HH        -4.671247287        -2.548967094         1.294094322    
HH        -4.762757717        -2.105954969       -0.4277429148    
C         -3.386598040       -0.9414888871        0.7236586594    
O         -2.621955052       -0.8343350427       -0.2341413526    
N         -3.130625368       -0.4158239217         1.922173299    
H         -3.813708036       -0.5555938665         2.653188790    
CA        -1.972099634        0.4369530769         2.221174469    
HA        -1.985794504         1.284393510         1.533313225    
CB        -2.141780153        0.9794022273         3.646429873    
HB        -2.134203661        0.1578769868         4.364752206    
HB        -1.323485217         1.662506004         3.878979560    
HB        -3.084566781         1.522434297         3.728072339    
C        -0.6074379648       -0.2691533688         2.047096505    
O         0.4067194157        0.3932724889         1.809478691    
N        -0.5758634483        -1.607245492         2.100630310    
H         -1.438922390        -2.087896266         2.311753097    
CA        0.6250145522        -2.423544588         1.887958270    
HA         1.400380619        -2.078290687         2.574367207    
CB        0.2770885243        -3.872696471         2.252516933    
HB       -0.4957174752        -4.253467971         1.582625653    
HB       -0.7998828311E-01    -3.921959883         3.282323920    
HB         1.166368045        -4.497954231         2.160639906    
C          1.204648856        -2.325675884        0.4560109981    
O          2.380989960        -2.636232825        0.2461283315    
N         0.4139638574        -1.861390534       -0.5218131212    
H        -0.5504659035        -1.649580076       -0.2974010735    
CA        0.8594584945        -1.600325870        -1.895563317    
HA         1.539876166        -2.399256639        -2.195784247    
CB       -0.3693389089        -1.667624509        -2.811869516    
HB        -1.060608465       -0.8590174541        -2.570804126    
HB       -0.5778737146E-01    -1.568284505        -3.852395807    
HB       -0.8752832352        -2.626052472        -2.687343438    
C          1.628343271       -0.2654036187        -2.064828849    
O          2.218462703       -0.3515453017E-01    -3.125990368    
N          1.643742468        0.5914586393        -1.030564696    
H          1.154058257        0.3060544803       -0.1931114704    
CA         2.223987275         1.943053444        -1.008513324    
HA         1.954491923         2.378654471       -0.4458011437E-01
CB         3.759947963         1.829289843        -1.011111289    
HB         4.209691330         2.799234663       -0.7970289007    
HB         4.080945927         1.124927690       -0.2421805323    
HB         4.113059644         1.484190276        -1.983378052    
C          1.653705160         2.920103037        -2.072950050    
O         0.7461502677         2.587097871        -2.845437388    
N          2.157171640         4.162978202        -2.082089002    
H          2.885688792         4.374916564        -1.413363837    
CH         1.737174707         5.232347536        -2.989709876    
HH         2.312122728         6.139327277        -2.792572943    
HH         1.900432164         4.930539895        -4.026458176    
HH        0.6764740868         5.450153200        -2.848134716    
