    52
Energy=    -36.7091838691005    
HH        -5.580600098        0.4231872732        0.6750422019    
CH        -4.681053753        0.1600930139        0.1199506575    
HH        -4.839067238       -0.7827658486       -0.4021723869    
HH        -4.454987727        0.9435573203       -0.6024019025    
C         -3.526268915        0.9138221927E-02     1.083551172    
O         -2.528228268        0.7214004942        0.9717351495    
N         -3.652642386       -0.9226968531         2.027613918    
H         -4.499452733        -1.471494174         2.046450519    
CA        -2.616964295        -1.216109228         3.021178998    
HA        -2.343636687       -0.2800705091         3.512585476    
CB        -3.200667791        -2.148745259         4.090748175    
HB        -3.501194730        -3.095973550         3.639934047    
HB        -2.449294723        -2.342637303         4.857617465    
HB        -4.068076302        -1.680560975         4.558417042    
C         -1.346746013        -1.804899958         2.368974413    
O         -1.424662232        -2.734480420         1.558349268    
N        -0.1776098149        -1.260017098         2.731707765    
H        -0.2062529591       -0.5196917819         3.419676522    
CA         1.149019867        -1.618881338         2.204967737    
HA         1.832454796       -0.8488361065         2.566996079    
CB         1.607459877        -2.938340967         2.849573888    
HB        0.9946215469        -3.765475938         2.489557422    
HB         1.519798512        -2.871797745         3.934844213    
HB         2.650389655        -3.132322501         2.595986708    
C          1.290562513        -1.573726452        0.6585011476    
O          2.168508070        -2.230689248        0.8909979292E-01
N         0.4448218809       -0.7970063720       -0.3388182482E-01
H        -0.2644949675       -0.2912841352        0.4792315409    
CA        0.4108435404       -0.7145134656        -1.500678976    
HA        0.5689532281        -1.715951884        -1.905209170    
CB       -0.9962114309       -0.2647919797        -1.916047721    
HB        -1.191414985        0.7443167475        -1.550226421    
HB        -1.077544867       -0.2694023084        -3.003856015    
HB        -1.740991496       -0.9490445896        -1.506902113    
C          1.502724348        0.1950094095        -2.112958785    
O          1.769302630        0.1070244309        -3.315389981    
N          2.134164116         1.057802986        -1.301843264    
H          1.856899745         1.059131366       -0.3307833077    
CA         3.200771162         1.995260898        -1.689862215    
HA         3.337914024         2.663511981       -0.8380032433    
CB         4.521183750         1.221721456        -1.846547967    
HB         5.346812622         1.922021906        -1.978609785    
HB         4.709858003        0.6242948892       -0.9536075215    
HB         4.470354656        0.5639470053        -2.714883292    
C          2.852162475         2.936222211        -2.875143160    
O          3.729108820         3.332321231        -3.652553619    
N          1.568534885         3.298080338        -3.022162842    
H         0.9084403862         2.939193554        -2.346091844    
CH         1.054551770         4.164790986        -4.083912213    
HH       -0.2261947478E-01     4.300675697        -3.968960119    
HH         1.539754601         5.142076944        -4.039010848    
HH         1.250712706         3.717427431        -5.060590780    
    52
Energy=    -35.9471281427265    
HH        -5.109378612         1.145572535        0.1916627237    
CH        -4.720671004        0.1307450449        0.1205803315    
HH        -5.513690371       -0.5743917174        0.3672861765    
HH        -4.371969131       -0.6290604148E-01   -0.8928130780    
C         -3.558791062       -0.1932193087E-01     1.077943421    
O         -2.567174583        0.6991220124        0.9515719912    
N         -3.664616958       -0.9473394044         2.029370523    
H         -4.505231334        -1.504518868         2.063869276    
CA        -2.614915175        -1.222976304         3.013514757    
HA        -2.343666891       -0.2798743743         3.492440647    
CB        -3.178846778        -2.149183018         4.099162796    
HB        -3.476005379        -3.103650350         3.661564599    
HB        -2.417541458        -2.328625928         4.859739314    
HB        -4.045103052        -1.683531972         4.571490993    
C         -1.346406076        -1.808151205         2.354608399    
O         -1.426172773        -2.732775242         1.538518619    
N        -0.1762138608        -1.267291157         2.720025994    
H        -0.2035639737       -0.5312408732         3.412635393    
CA         1.150468830        -1.628099925         2.194579369    
HA         1.835348182       -0.8614803436         2.561119442    
CB         1.603540988        -2.951274746         2.835345917    
HB        0.9891363108        -3.775251613         2.470779048    
HB         1.513486280        -2.888533710         3.920648281    
HB         2.646501942        -3.147380689         2.583526972    
C          1.296361912        -1.577706099        0.6487264155    
O          2.176637751        -2.231915582        0.7975514259E-01
N         0.4522441587       -0.7991694817       -0.4346468400E-01
H        -0.2593512454       -0.2964500331        0.4693053046    
CA        0.4231314549       -0.7106761235        -1.509992323    
HA        0.5876067180        -1.709570482        -1.918254818    
CB       -0.9847993786       -0.2664617761        -1.928097725    
HB        -1.187144738        0.7393875838        -1.557165039    
HB        -1.062174680       -0.2654243817        -3.016208342    
HB        -1.726903715       -0.9574219788        -1.525480921    
C          1.512741336        0.2066570321        -2.114643527    
O          1.781926501        0.1269773434        -3.317073147    
N          2.139449825         1.066869661        -1.297141309    
H          1.860504151         1.061190528       -0.3265816584    
CA         3.203271924         2.010633027        -1.677477849    
HA         3.336310085         2.674237233       -0.8213458736    
CB         4.526866524         1.242990414        -1.836304936    
HB         5.350113092         1.947154333        -1.962569715    
HB         4.716098427        0.6408993037       -0.9466218309    
HB         4.480139465        0.5902829296        -2.708684980    
C          2.853397206         2.957438190        -2.857723114    
O          3.730337901         3.361514860        -3.631024279    
N          1.568707276         3.315381735        -3.005039537    
H         0.9086646959         2.949933808        -2.332440648    
CH         1.053518128         4.186586241        -4.062518974    
HH       -0.2437334033E-01     4.317746695        -3.948837612    
HH         1.534967829         5.165388048        -4.010760498    
HH         1.253226976         3.745886593        -5.041505428    
    52
Energy=    -36.7091838691022    
HH        -4.458963656        0.9237390650       -0.6037141840    
CH        -4.682030807        0.1344365710        0.1131944600    
HH        -5.583868222        0.3891570051        0.6684742262    
HH        -4.834170864       -0.8058577073       -0.4152595479    
C         -3.528029472       -0.1659805660E-01     1.077720662    
O         -2.533615038        0.7016653792        0.9721599143    
N         -3.650976546       -0.9551681490         2.015543426    
H         -4.494882068        -1.508568226         2.029432408    
CA        -2.615370420        -1.249481783         3.008916941    
HA        -2.347832028       -0.3151962963         3.506803096    
CB        -3.195840597        -2.192093731         4.071477554    
HB        -3.490584468        -3.137975041         3.614065429    
HB        -2.444695744        -2.386937677         4.838329147    
HB        -4.066490540        -1.731555530         4.540712531    
C         -1.340974055        -1.827289952         2.355042750    
O         -1.412618515        -2.752017365         1.538311348    
N        -0.1753483709        -1.278555432         2.723226754    
H        -0.2090540487       -0.5428507224         3.415906711    
CA         1.154029858        -1.626955954         2.196391369    
HA         1.832764021       -0.8556434826         2.564514289    
CB         1.618438230        -2.948095590         2.833237471    
HB         1.010600183        -3.776133608         2.466875779    
HB         1.528655698        -2.889028271         3.918766995    
HB         2.662797891        -3.134890687         2.580140048    
C          1.297849627        -1.571064649        0.6504857377    
O          2.180207438        -2.219662285        0.7832123433E-01
N         0.4491144349       -0.7943952155       -0.3828027593E-01
H        -0.2637202490       -0.2957732930        0.4769027831    
CA        0.4170869687       -0.7026146999        -1.504569485    
HA        0.5811853605        -1.700565898        -1.915285181    
CB       -0.9916640715       -0.2577038563        -1.919369607    
HB        -1.192833655        0.7479701131        -1.547373982    
HB        -1.071199531       -0.2557220990        -3.007318800    
HB        -1.733455778       -0.9485321927        -1.515884313    
C          1.505105546        0.2166319348        -2.109154738    
O          1.774106945        0.1378306325        -3.311683208    
N          2.130620263         1.077513426        -1.291443460    
H          1.851771299         1.071098307       -0.3208576408    
CA         3.192851119         2.023112044        -1.671634887    
HA         3.325046065         2.686568096       -0.8152576659    
CB         4.517617339         1.257628184        -1.831109114    
HB         5.339719611         1.963144355        -1.957279109    
HB         4.708015352        0.6554593881       -0.9417270485    
HB         4.471705884        0.6052135133        -2.703751253    
C          2.841168073         2.969841268        -2.851401789    
O          3.717257983         3.375606533        -3.624782270    
N          1.555873008         3.325814481        -2.998219849    
H         0.8965985456         2.959067007        -2.325575860    
CH         1.039012130         4.196618875        -4.055211916    
HH       -0.3905345420E-01     4.326031063        -3.941178528    
HH         1.518929346         5.176159686        -4.003202092    
HH         1.239144281         3.756620323        -5.034427256    
