    52
Energy=    -36.0052301474998    
HH        -4.551696479       -0.6900725330         5.205468568    
CH        -4.344371397        -1.520098220         4.531080901    
HH        -3.542152126        -2.130806875         4.943549007    
HH        -5.241404867        -2.127034351         4.413497006    
C         -3.918458252       -0.9753805591         3.186802397    
O         -4.564830793        -1.246923900         2.175460934    
N         -2.823776211       -0.2145549314         3.174358232    
H         -2.365841677       -0.3458669933E-01     4.056648513    
CA        -2.282864397        0.4403058684         1.975813009    
HA        -3.118612276        0.8311214522         1.392593981    
CB        -1.435393773         1.635364672         2.434670614    
HB       -0.5737900000         1.287207969         3.006681211    
HB        -1.083526875         2.192752278         1.565577312    
HB        -2.036727951         2.301065764         3.055642754    
C         -1.484098648       -0.4971532225         1.038910744    
O         -1.165862116       -0.1063579722       -0.8784289679E-01
N         -1.155710035        -1.717367567         1.486862070    
H         -1.458205265        -1.956269910         2.419882284    
CA       -0.3553823539        -2.720114604        0.7711002821    
HA       -0.6140761393E-01    -3.469949518         1.507716268    
CB        -1.242160859        -3.459252158       -0.2471011355    
HB        -1.619629796        -2.767409425        -1.001391452    
HB        -2.090236120        -3.912634325        0.2681216620    
HB       -0.6679094681        -4.249180697       -0.7337535093    
C         0.9788505292        -2.157718670        0.2214260645    
O          1.901535481        -1.895203812        0.9988715203    
N          1.090587322        -1.951350900        -1.097108428    
H         0.2993964270        -2.184273828        -1.680116337    
CA         2.281579224        -1.397167407        -1.752881219    
HA         3.162615445        -1.899585219        -1.349277225    
CB         2.191026076        -1.733590381        -3.247371453    
HB         1.324084800        -1.241876376        -3.691713811    
HB         3.093173997        -1.391323040        -3.756470981    
HB         2.102617967        -2.812868050        -3.380882514    
C          2.480804952        0.1217042460        -1.525873603    
O          3.578988871        0.6357637425        -1.759155264    
N          1.440403675        0.8360852297        -1.070882776    
H         0.5776760227        0.3339164447       -0.8921878844    
CA         1.433058158         2.274224917       -0.7644189156    
HA        0.3853530304         2.541042251       -0.6163600050    
CB         2.130846201         2.505765876        0.5866165723    
HB         1.990989549         3.540178237        0.9026534827    
HB         3.198403979         2.301789790        0.4970957141    
HB         1.701766580         1.848262083         1.343867673    
C          1.914438776         3.197397114        -1.916168366    
O          2.497527607         4.261916797        -1.677382565    
N          1.675321411         2.794598822        -3.173435000    
H          1.189998968         1.915813651        -3.291156416    
CH         2.065581477         3.525600169        -4.379992289    
HH         1.747138211         2.978680212        -5.269623617    
HH         3.150485380         3.646273351        -4.410418573    
HH         1.599799534         4.513274012        -4.388002542    
    52
Energy=    -32.3234336139235    
HH        -4.738726465       -0.4488231069         4.906279414    
CH        -4.515631245        -1.315414946         4.285014476    
HH        -3.764454345        -1.931334321         4.777992029    
HH        -5.423276500        -1.898529466         4.133279724    
C         -3.982094028       -0.8474702376         2.950261016    
O         -4.568355998        -1.145155691         1.910055862    
N         -2.863389750       -0.1228971642         2.979118704    
H         -2.459587434        0.8339864814E-01     3.881848485    
CA        -2.220982636        0.4577692415         1.792513256    
HA        -3.001414273        0.8494364074         1.137612496    
CB        -1.361882035         1.642996358         2.255467484    
HB       -0.5535797646         1.292155244         2.899191475    
HB       -0.9324367427         2.147659793         1.389090585    
HB        -1.977881036         2.356607723         2.804744447    
C         -1.396598089       -0.5480210661        0.9539362152    
O        -0.9955681341       -0.2226503821       -0.1672365533    
N         -1.137036088        -1.753910353         1.479102931    
H         -1.505469498        -1.938286842         2.400718607    
CA       -0.3221389435        -2.810981709        0.8654115580    
HA       -0.9949369343E-01    -3.532655653         1.653374960    
CB        -1.162410724        -3.573096789       -0.1751608976    
HB        -1.466974232        -2.908129935       -0.9845887591    
HB        -2.056704663        -3.976642822        0.3019535941    
HB       -0.5826202990        -4.401879112       -0.5844945466    
C          1.061255893        -2.309768805        0.3816561886    
O          1.931249411        -2.016263421         1.207309730    
N          1.272970774        -2.188964799       -0.9351826158    
H         0.5213143126        -2.443784706        -1.559802724    
CA         2.522721526        -1.704030209        -1.534619339    
HA         3.358347444        -2.195244541        -1.032619600    
CB         2.535210947        -2.142311499        -3.005117733    
HB         1.717890438        -1.663235255        -3.546635212    
HB         3.481875668        -1.856213330        -3.465577998    
HB         2.427560905        -3.226021191        -3.071471068    
C          2.744995009       -0.1765926868        -1.397393521    
O          3.876084264        0.2853914115        -1.569748818    
N          1.688265951        0.5815845740        -1.066643864    
H         0.8167364541        0.8621245101E-01   -0.9179220202    
CA         1.608161632         2.044062103       -0.9353373539    
HA        0.5556870797         2.265133240       -0.7485858049    
CB         2.351294342         2.496742686        0.3309828765    
HB         2.183515658         3.562454247        0.4916795740    
HB         3.422086896         2.319902639        0.2250568219    
HB         1.979666552         1.946602468         1.196636486    
C          1.993581933         2.847867548        -2.204253582    
O          3.154869581         2.893002003        -2.625148740    
N          1.007151734         3.535796043        -2.797659972    
H         0.8116411867E-01     3.467870221        -2.396205026    
CH         1.168028762         4.372858996        -3.988234900    
HH        0.2094715414         4.813356840        -4.269650650    
HH         1.537845927         3.772647559        -4.822255847    
HH         1.879702165         5.176801396        -3.788741852    
    52
Energy=    -34.5658036375594    
HH        -4.723644046       -0.4890196634         4.963375843    
CH        -4.442127254        -1.389112566         4.418120485    
HH        -3.630012832        -1.891529686         4.942236048    
HH        -5.300149298        -2.056877691         4.349171918    
C         -3.981516807        -1.007098671         3.029915585    
O         -4.564359858        -1.449209731         2.040379833    
N         -2.928144797       -0.1932203873         2.956936767    
H         -2.522432137        0.1301353777         3.823744170    
CA        -2.365259661        0.3236051983         1.702379367    
HA        -3.191146605        0.5860563322         1.038754812    
CB        -1.599085414         1.613872608         2.026989502    
HB       -0.7494095480         1.393135280         2.675168546    
HB        -1.233793729         2.067524183         1.104739899    
HB        -2.260444346         2.323411266         2.526528598    
C         -1.477986015       -0.6854574812        0.9349323865    
O         -1.132080007       -0.4353852332       -0.2232617686    
N         -1.104527438        -1.810737235         1.560777522    
H         -1.435648470        -1.937630015         2.505951980    
CA       -0.2107885608        -2.846274890         1.025090077    
HA        0.8485981700E-01    -3.472122088         1.868997387    
CB       -0.9964055583        -3.768483022        0.7539936148E-01
HB        -1.369372145        -3.208186550       -0.7830975408    
HB        -1.845088591        -4.202219927        0.6062846409    
HB       -0.3523709189        -4.578103412       -0.2714480546    
C          1.116908124        -2.275314247        0.4683289178    
O          1.974283279        -1.845361507         1.246099984    
N          1.294022059        -2.245841015       -0.8586882315    
H         0.5544386657        -2.609301840        -1.442445463    
CA         2.485494191        -1.705033768        -1.524759437    
HA         3.370199696        -2.083878067        -1.009720187    
CB         2.506978483        -2.249763536        -2.958895069    
HB         1.640869824        -1.883311416        -3.512318461    
HB         3.415948028        -1.919079478        -3.463266173    
HB         2.492299404        -3.340579993        -2.943268849    
C          2.575850975       -0.1586280905        -1.506395348    
O          3.661518516        0.3891723375        -1.726752932    
N          1.462239809        0.5333552882        -1.220403158    
H         0.6266313863       -0.6685503002E-02    -1.029569374    
CA         1.302187757         1.995023484        -1.209627473    
HA        0.2391846729         2.188431790        -1.055429623    
CB         2.024551751         2.563241543        0.2614219692E-01
HB         1.760268079         3.611391695        0.1689235872    
HB         3.105156920         2.484733736       -0.9798116943E-01
HB         1.725023310         2.009803538        0.9175487352    
C          1.656817953         2.705653881        -2.544808320    
O          1.963231953         2.069625197        -3.561217410    
N          1.562177124         4.043272747        -2.561141084    
H          1.289930566         4.501119399        -1.701505186    
CH         1.829716726         4.889786282        -3.725420590    
HH         1.689132485         5.940848096        -3.465524189    
HH         1.148608578         4.634379406        -4.539932591    
HH         2.857264201         4.745867848        -4.066040464    
