    52
Energy=    -38.1634053150354    
HH        -4.783010285       -0.1974283778        -1.000219443    
CH        -4.924203184       -0.9961112375       -0.2729728401    
HH        -5.945112731       -0.9691507889        0.1058963225    
HH        -4.738216409        -1.958723145       -0.7476662594    
C         -3.960142840       -0.8125308779        0.8769033808    
O         -3.176791467        0.1373084843        0.8836813071    
N         -4.009133613        -1.722337787         1.849181419    
H         -4.674996434        -2.475955751         1.764303935    
CA        -3.126738770        -1.708899680         3.018480445    
HA        -3.183262914       -0.7180932557         3.473994339    
CB        -3.644882874        -2.722865950         4.046939481    
HB        -3.616594445        -3.730186195         3.628263960    
HB        -3.019226644        -2.691588314         4.940147796    
HB        -4.670332078        -2.477064683         4.326851175    
C         -1.654604767        -1.975407984         2.634147839    
O         -1.359237491        -2.887303248         1.853763317    
N        -0.7340675626        -1.180265195         3.195869109    
H         -1.063194277       -0.4758324679         3.841903819    
CA        0.7155394909        -1.217893677         2.943929667    
HA         1.121877291       -0.3142683749         3.401482532    
CB         1.330469806        -2.402160510         3.709234854    
HB         1.003974837        -3.344641739         3.268320062    
HB         1.022810833        -2.368681990         4.755225958    
HB         2.418832956        -2.347168694         3.664570990    
C          1.137757660        -1.125137376         1.451616007    
O          2.225659517        -1.577402029         1.076305257    
N         0.2930133515       -0.5417157880        0.5913767504    
H        -0.5799699951       -0.1844987381        0.9512696696    
CA        0.5562404886       -0.3698306228       -0.8408524609    
HA        0.9728839204        -1.302791165        -1.226062039    
CB       -0.7787330036       -0.1304858263        -1.559023411    
HB        -1.229544289        0.7997876852        -1.209994844    
HB       -0.6134187100       -0.6224615182E-01    -2.635061787    
HB        -1.460638764       -0.9587854825        -1.361068356    
C          1.580032193        0.7507700569        -1.135673386    
O          1.758353120         1.683926772       -0.3430751809    
N          2.239036593        0.6715014766        -2.296608518    
H          2.034285350       -0.1052420286        -2.908169995    
CA         3.208617483         1.666612463        -2.766217649    
HA         3.874570156         1.913256640        -1.936732838    
CB         4.062099300         1.030413811        -3.872051848    
HB         4.831863311         1.732634491        -4.195160752    
HB         4.547000448        0.1286936007        -3.494910783    
HB         3.435315580        0.7727356864        -4.727354900    
C          2.543575114         2.982719074        -3.234792693    
O          1.375515120         3.001709967        -3.643519209    
N          3.302693732         4.086761655        -3.201372988    
H          4.252243673         3.990117675        -2.866069204    
CH         2.860360851         5.419538778        -3.615197976    
HH         2.005566504         5.735227661        -3.013307551    
HH         3.669165546         6.141037761        -3.483551393    
HH         2.566699624         5.407941192        -4.666971087    
    52
Energy=    -32.4098719116693    
HH        -6.402594448        0.3858909261        0.4402124193    
CH        -6.163967821       -0.6337757839        0.7401824037    
HH        -7.022754172        -1.076825000         1.242919413    
HH        -5.914459272        -1.224322485       -0.1404706697    
C         -4.982887726       -0.6237236049         1.684756879    
O         -4.448671075        0.4412100377         1.996365033    
N         -4.577226623        -1.807965158         2.140791339    
H         -5.070092387        -2.629554926         1.824347792    
CA        -3.435877403        -1.999037451         3.041359125    
HA        -3.508603139        -1.259634502         3.841628299    
CB        -3.547855224        -3.388844147         3.683606669    
HB        -3.477445426        -4.162216977         2.916959136    
HB        -2.741261327        -3.529555165         4.404551314    
HB        -4.502539700        -3.482079652         4.203547059    
C         -2.070525191        -1.796118518         2.342159316    
O         -1.954086712        -1.983680239         1.127103790    
N         -1.055530877        -1.429135083         3.140045364    
H         -1.294686781        -1.305630240         4.113575019    
CA        0.3695502754        -1.220174376         2.822611194    
HA        0.6042309662       -0.1793703205         3.053810856    
CB         1.185524843        -2.088440335         3.793602023    
HB        0.9552614732        -3.143976837         3.639906649    
HB        0.9505072123        -1.817832747         4.823988899    
HB         2.251160555        -1.927034516         3.624483337    
C         0.7970643103        -1.461813284         1.351497332    
O          1.077296409        -2.595441871        0.9415906850    
N         0.8809920028       -0.3789150015        0.5698753082    
H         0.6510197373        0.5165516167        0.9775055413    
CA         1.286772951       -0.3770974403       -0.8409876845    
HA         1.919610820        -1.245581448        -1.033774838    
CB        0.2624049014E-01   -0.4991275463        -1.710681584    
HB       -0.6270703960        0.3588644321        -1.544784230    
HB        0.3035763814       -0.5370713462        -2.764910618    
HB       -0.5120517798        -1.413526842        -1.457720052    
C          2.106882994        0.8788538891        -1.212007502    
O          2.041025273         1.909025456       -0.5305206758    
N          2.870581868        0.7995701498        -2.306769327    
H          2.866283208       -0.6492811963E-01    -2.828441671    
CA         3.678209161         1.904918279        -2.833451167    
HA         4.208299276         2.369323204        -1.999331974    
CB         4.732279445         1.325756969        -3.787144774    
HB         5.385211416         2.123112671        -4.144853858    
HB         5.338929801        0.5845270258        -3.264646057    
HB         4.244974832        0.8554657194        -4.642804801    
C          2.826981648         3.004356244        -3.512174746    
O          1.717822132         2.748941570        -3.998278831    
N          3.362626191         4.231557756        -3.570169293    
H          4.278996440         4.360401763        -3.161420309    
CH         2.721275544         5.396808770        -4.181806464    
HH         1.771544441         5.606573969        -3.685200385    
HH         3.367364740         6.272122410        -4.089868325    
HH         2.532090945         5.208597903        -5.240762357    
    52
Energy=    -38.5116788737170    
HH        -7.630264257       -0.8017208352         3.858483983    
CH        -7.165461828        -1.573645722         3.246316674    
HH        -7.613271289        -2.539893813         3.475214070    
HH        -7.316898342        -1.343985159         2.192333042    
C         -5.682207862        -1.629511419         3.536414511    
O         -5.183906085       -0.8640408663         4.362448088    
N         -4.978445376        -2.535458197         2.859005851    
H         -5.470223875        -3.114896288         2.195309535    
CA        -3.529931658        -2.721754815         2.988451674    
HA        -3.280834957        -2.727214879         4.051579276    
CB        -3.161694570        -4.098641523         2.418626300    
HB        -3.391292476        -4.136009482         1.352493437    
HB        -2.095678374        -4.283526473         2.558337519    
HB        -3.723340129        -4.877565460         2.936526181    
C         -2.712608780        -1.588184478         2.326432448    
O         -3.170967088       -0.9292627693         1.384814662    
N         -1.480359586        -1.380081895         2.802806176    
H         -1.157871201        -1.964799014         3.560047886    
CA       -0.5434619693       -0.3880808494         2.265414976    
HA        -1.084301311        0.5494548419         2.120506188    
CB        0.5513327946       -0.1347100279         3.311035055    
HB         1.123465511        -1.047873997         3.483268949    
HB        0.1003854417        0.1911727186         4.249627804    
HB         1.226758098        0.6458477522         2.957894965    
C         0.4940608515E-01   -0.7982233161        0.8971019497    
O         0.1321154289        -1.986956515        0.5650355234    
N         0.4891947861        0.1937423870        0.1153397016    
H         0.4125763367         1.139033783        0.4648035321    
CA         1.104147450        0.2582577305E-01    -1.207058302    
HA         1.558290451       -0.9651302007        -1.268743488    
CB        0.1098022095E-03    0.1154985790        -2.271607673    
HB       -0.4688501975         1.100301965        -2.241856105    
HB        0.4253738823       -0.4621164318E-01    -3.263023548    
HB       -0.7568730147       -0.6480823474        -2.087156412    
C          2.222847488         1.059564124        -1.467032754    
O          2.272920356         2.119607729       -0.8316392898    
N          3.114483201        0.7583646205        -2.416892414    
H          3.007015055       -0.1158886654        -2.910507616    
CA         4.213075914         1.638625368        -2.828856916    
HA         4.692409757         2.031628786        -1.929850400    
CB         5.254974029        0.7975504681        -3.579234433    
HB         6.111765534         1.419231879        -3.842810146    
HB         5.598449808       -0.2107671963E-01    -2.944943867    
HB         4.819009924        0.3886608474        -4.492217291    
C          3.735252276         2.848479912        -3.666692736    
O          2.687543947         2.800608286        -4.323818765    
N          4.524227989         3.931907253        -3.665344428    
H          5.371041115         3.891658430        -3.113348404    
CH         4.252287739         5.166407865        -4.403787858    
HH         3.303853630         5.598190884        -4.077221938    
HH         5.048639075         5.892240060        -4.227574241    
HH         4.195791623         4.958822859        -5.474450929    
