    52
Energy=    -36.7091838691009    
HH        -5.578106423        0.5626700534        0.5882350096    
CH        -4.676720434        0.2801631057        0.4581269918E-01
HH        -4.850426303       -0.6547653630       -0.4855050960    
HH        -4.418862825         1.062366442       -0.6671969660    
C         -3.542018259        0.9294622227E-01     1.026752121    
O         -2.524300742        0.7799226400        0.9360881369    
N         -3.707649844       -0.8416426701         1.961979963    
H         -4.568490800        -1.368493922         1.963278145    
CA        -2.696150893        -1.168390680         2.969946790    
HA        -2.406861431       -0.2430526570         3.472358915    
CB        -3.320961600        -2.092809802         4.023302781    
HB        -3.638385728        -3.028903713         3.560959438    
HB        -2.587390664        -2.311203206         4.800748675    
HB        -4.183528319        -1.605529301         4.480297953    
C         -1.431063076        -1.785399636         2.334059531    
O         -1.519675992        -2.707182368         1.515665834    
N        -0.2543494803        -1.273355692         2.719427383    
H        -0.2751206947       -0.5371824845         3.412118208    
CA         1.070998285        -1.662821895         2.211535364    
HA         1.768038791       -0.9131430696         2.589997612    
CB         1.484806221        -2.997991434         2.853986386    
HB        0.8568283395        -3.806577026         2.478263008    
HB         1.381253552        -2.936508031         3.938154652    
HB         2.526385919        -3.217141957         2.615821336    
C          1.238778436        -1.610936419        0.6679065561    
O          2.108675582        -2.286516160        0.1080160396    
N         0.4246651606       -0.8079857652       -0.3241856977E-01
H        -0.2796566114       -0.2875705478        0.4728234887    
CA        0.4166708825       -0.7147769387        -1.498945649    
HA        0.5555235448        -1.717221901        -1.908025461    
CB       -0.9714112869       -0.2260693881        -1.933660620    
HB        -1.146514162        0.7852617573        -1.563825014    
HB        -1.035140611       -0.2212585110        -3.022641197    
HB        -1.740099363       -0.8935889089        -1.541442006    
C          1.541396131        0.1703313605        -2.087077054    
O          1.825136492        0.8357914808E-01    -3.285664380    
N          2.181550399         1.011047720        -1.259770672    
H          1.888661384         1.013006697       -0.2933096437    
CA         3.278086093         1.923225594        -1.623882803    
HA         3.418505765         2.581964977       -0.7651767287    
CB         4.580536708         1.116902670        -1.764839759    
HB         5.425944147         1.796511556        -1.878603143    
HB         4.739238840        0.5088077851       -0.8732718355    
HB         4.526928231        0.4665171380        -2.638557023    
C          2.973113084         2.880831238        -2.807863389    
O          3.872481051         3.259362676        -3.568223539    
N          1.701778199         3.276712062        -2.972914517    
H          1.021766413         2.930458947        -2.310125550    
CH         1.227589038         4.163534820        -4.036572238    
HH        0.1525431116         4.326426611        -3.937986960    
HH         1.736975810         5.127635165        -3.976894783    
HH         1.428030231         3.717832863        -5.013141428    
    52
Energy=    -36.3579989147196    
HH        -5.569671340        0.5946643914        0.6058426583    
CH        -4.671755550        0.3069635141        0.6040320421E-01
HH        -4.852605266       -0.6269919989       -0.4702416742    
HH        -4.411834521         1.087628067       -0.6535431639    
C         -3.534835605        0.1133219984         1.037519755    
O         -2.513514294        0.7944544080        0.9433568201    
N         -3.702650217       -0.8202416831         1.973382556    
H         -4.566483154        -1.342157196         1.977637594    
CA        -2.689636362        -1.152701153         2.977954541    
HA        -2.393395390       -0.2290061254         3.479338097    
CB        -3.316143001        -2.073513278         4.033460480    
HB        -3.640449657        -3.007800290         3.572240142    
HB        -2.581208518        -2.296053413         4.808438715    
HB        -4.174374875        -1.581314430         4.493337117    
C         -1.430234303        -1.776920636         2.337833116    
O         -1.526847429        -2.698315111         1.519907954    
N        -0.2493404746        -1.271439699         2.719056070    
H        -0.2635869366       -0.5350538415         3.411685743    
CA         1.072037135        -1.668407655         2.206648326    
HA         1.774578197       -0.9226018180         2.582583393    
CB         1.480563068        -3.005791920         2.847872213    
HB        0.8467623999        -3.810891041         2.474446143    
HB         1.381104721        -2.943581530         3.932382283    
HB         2.520067104        -3.230817422         2.606143624    
C          1.234768218        -1.617674322        0.6624406789    
O          2.098931182        -2.298188572        0.9965480238E-01
N         0.4227439558       -0.8102782266       -0.3519616278E-01
H        -0.2769114971       -0.2858655342        0.4723936713    
CA        0.4101778904       -0.7172682110        -1.501702895    
HA        0.5420685846        -1.720532152        -1.911079452    
CB       -0.9766784166       -0.2209566562        -1.931699790    
HB        -1.144883191        0.7914098313        -1.561492199    
HB        -1.044175842       -0.2160228141        -3.020453170    
HB        -1.747688005       -0.8841184251        -1.536654855    
C          1.537716757        0.1615203280        -2.093893305    
O          1.816679518        0.7313395364E-01    -3.293471339    
N          2.185390302        0.9988252675        -1.268961842    
H          1.896119876         1.002279331       -0.3014023718    
CA         3.286056034         1.904559725        -1.636926704    
HA         3.433142355         2.562522235       -0.7787353816    
CB         4.583226059         1.090315624        -1.781542222    
HB         5.432480919         1.764724406        -1.897567431    
HB         4.740695124        0.4811955854       -0.8904556963    
HB         4.523219291        0.4403215772        -2.655134551    
C          2.983091022         2.864148466        -2.820056673    
O          3.884374958         3.235279878        -3.581688864    
N          1.711788290         3.266561354        -2.977616374    
H          1.040276845         2.918938313        -2.306906208    
CH         1.211168605         4.155884625        -4.029721999    
HH        0.4492559555         3.640901036        -4.618153707    
HH        0.7658260457         5.046446202        -3.581902575    
HH         2.014593732         4.468504837        -4.699759094    
    52
Energy=    -36.7091838690939    
HH        -5.567142635        0.6186695553        0.6340476511    
CH        -4.673115207        0.3273758206        0.8414606207E-01
HH        -4.860592446       -0.6054506529       -0.4461846117    
HH        -4.413192879         1.107335488       -0.6305697484    
C         -3.532394796        0.1281522627         1.055695467    
O         -2.508559104        0.8048615332        0.9570519606    
N         -3.699826003       -0.8052409327         1.991796571    
H         -4.565909222        -1.323368054         1.999872852    
CA        -2.683488138        -1.142758867         2.991311701    
HA        -2.380769195       -0.2206736450         3.491788343    
CB        -3.308992533        -2.061410198         4.049291833    
HB        -3.639625491        -2.993989000         3.589107225    
HB        -2.571345462        -2.287641420         4.820615599    
HB        -4.162831051        -1.565696584         4.513550397    
C         -1.429933907        -1.772160592         2.344817240    
O         -1.534536336        -2.692541785         1.526733696    
N        -0.2449986479        -1.272247169         2.720805630    
H        -0.2526732096       -0.5362903884         3.413995167    
CA         1.072155022        -1.674798037         2.201918434    
HA         1.779803066       -0.9324119712         2.575033234    
CB         1.477677841        -3.014440328         2.840328804    
HB        0.8385136227        -3.816429416         2.469360420    
HB         1.383605312        -2.952522303         3.925336042    
HB         2.515010569        -3.243968750         2.593559016    
C          1.227844749        -1.623744051        0.6569956582    
O          2.086270121        -2.307763252        0.8969500106E-01
N         0.4161986347       -0.8122169642       -0.3627185337E-01
H        -0.2786795599       -0.2849962977        0.4749554636    
CA        0.3971753752       -0.7181097815        -1.502639956    
HA        0.5225455588        -1.721676779        -1.913319702    
CB       -0.9893991830       -0.2151606010        -1.925768066    
HB        -1.151247107        0.7976803548        -1.554030896    
HB        -1.061964178       -0.2090955634        -3.014189309    
HB        -1.761566931       -0.8751003342        -1.527602744    
C          1.525950059        0.1559206024        -2.099515741    
O          1.799005696        0.6697802719E-01    -3.300422047    
N          2.181300206        0.9896633996        -1.277064247    
H          1.896344880        0.9940395675       -0.3082422571    
CA         3.283990077         1.890921104        -1.649685032    
HA         3.438065000         2.547727086       -0.7918399393    
CB         4.577031028         1.071560698        -1.801661121    
HB         5.428306971         1.742657974        -1.922001439    
HB         4.736851838        0.4613941692       -0.9117098674    
HB         4.509721836        0.4222395442        -2.675221983    
C          2.979056188         2.852222017        -2.830677422    
O          3.875967244         3.222074640        -3.598177220    
N          1.710482231         3.261018205        -2.985149706    
H          1.032438615         2.921280999        -2.316994074    
CH         1.236613295         4.153181807        -4.044474992    
HH         1.424561892         3.706025028        -5.022861638    
HH        0.1641090116         4.326870063        -3.937034396    
HH         1.756187581         5.112053571        -3.988499456    
