    52
Energy=    -38.2033786461713    
HH        -2.999532869         1.884216644         5.453756437    
CH        -2.381050565         1.943815532         4.558975239    
HH        -3.018963327         2.067173086         3.684633106    
HH        -1.704334168         2.793755221         4.639593922    
C         -1.581794301        0.6680799792         4.419636963    
O        -0.3519287118        0.7063028747         4.408944858    
N         -2.281959979       -0.4606305768         4.306013767    
H         -3.289243666       -0.3949679382         4.343377782    
CA        -1.687349401        -1.799296567         4.193207906    
HA       -0.8053941683        -1.839202360         4.834953929    
CB        -2.705051180        -2.810906565         4.738204270    
HB        -2.267379222        -3.810119731         4.737819245    
HB        -2.977758450        -2.549284377         5.761689120    
HB        -3.600654661        -2.814873577         4.114893503    
C         -1.218317554        -2.170597059         2.764808277    
O        -0.5239516788        -3.176782929         2.584050001    
N         -1.587670927        -1.381288066         1.748483243    
H         -2.147025330       -0.5701307620         1.964569792    
CA        -1.220135536        -1.602229846        0.3462658672    
HA        -1.385178315        -2.656194800        0.1128519585    
CB        -2.164350829       -0.7770908796       -0.5396263829    
HB        -3.200615531        -1.047493973       -0.3304746654    
HB        -2.023847701        0.2879874271       -0.3471281557    
HB        -1.957143518       -0.9785496147        -1.591593379    
C         0.2644298464        -1.287952460        0.5010793417E-01
O         0.9016805022       -0.4831242696        0.7381803659    
N         0.8059218613        -1.898011598        -1.011021729    
H         0.2343769871        -2.553852540        -1.525978986    
CA         2.196113060        -1.717171032        -1.451770426    
HA         2.833047699        -1.647853518       -0.5680684014    
CB         2.609270547        -2.976793523        -2.225038839    
HB         2.005393039        -3.077989595        -3.128258740    
HB         3.660804517        -2.906933287        -2.506935363    
HB         2.473506146        -3.859300612        -1.598024135    
C          2.436961311       -0.4319546625        -2.281537499    
O          3.589685604       -0.4622965224E-01    -2.503476271    
N          1.371532175        0.2338842713        -2.744397700    
H         0.4577135650       -0.1309100728        -2.524742333    
CA         1.437823251         1.468966342        -3.531869595    
HA         2.194144843         1.338219390        -4.308581608    
CB        0.8601847706E-01     1.671509506        -4.230190402    
HB        0.1296207182         2.553316564        -4.870973205    
HB       -0.1480598875        0.8021748013        -4.846610576    
HB       -0.7018193802         1.810843684        -3.488007237    
C          1.842901527         2.703541544        -2.692045051    
O          1.612194639         2.758272100        -1.477639344    
N          2.424242307         3.715551845        -3.351086364    
H          2.568323082         3.602919110        -4.346056661    
CH         2.864058757         4.970395020        -2.738609713    
HH         3.308819848         5.621076350        -3.494158397    
HH         3.607942678         4.769991318        -1.964609813    
HH         2.013984168         5.485723635        -2.286506518    
    52
Energy=    -32.4131622570475    
HH        -3.748397840         1.420314164         5.371602341    
CH        -3.107982326         1.585993708         4.506081390    
HH        -3.717285232         1.610805546         3.603440342    
HH        -2.582476816         2.533756978         4.617591272    
C         -2.106868055        0.4577437751         4.403526696    
O        -0.9002955561        0.6948898914         4.449009025    
N         -2.608724670       -0.7686611996         4.257894220    
H         -3.613958298       -0.8674623943         4.249100978    
CA        -1.800229619        -1.992325001         4.172351198    
HA       -0.9554497063        -1.894970144         4.856565112    
CB        -2.665548948        -3.160454357         4.665069383    
HB        -2.072192736        -4.075624919         4.684507616    
HB        -3.026022746        -2.956234416         5.674371476    
HB        -3.517597194        -3.303319207         3.998553077    
C         -1.208978252        -2.269211660         2.768106369    
O        -0.3519264237        -3.147138411         2.620108049    
N         -1.652782555        -1.541050727         1.736051853    
H         -2.347085619       -0.8342518278         1.925667038    
CA        -1.186322795        -1.684984947        0.3534115377    
HA        -1.169825821        -2.748961917        0.1080067029    
CB        -2.204676178        -1.008918552       -0.5756410148    
HB        -3.193802782        -1.442971820       -0.4209326823    
HB        -2.245192175        0.6247026436E-01   -0.3713131322    
HB        -1.915999126        -1.161481589        -1.616570596    
C         0.2415143563        -1.134769812        0.1339010800    
O         0.7037619527       -0.2405123075        0.8508733762    
N         0.9285823687        -1.640876954       -0.8975017282    
H         0.5007980128        -2.379431195        -1.439470165    
CA         2.292920341        -1.231953315        -1.260039273    
HA         2.890722338        -1.180681200       -0.3481030354    
CB         2.889824626        -2.329769819        -2.150790792    
HB         2.324221678        -2.408636001        -3.080665650    
HB         3.927389484        -2.088152018        -2.385823404    
HB         2.863665881        -3.287481907        -1.628750090    
C          2.378242390        0.1581140843        -1.937707515    
O          3.460256608        0.7499081347        -1.963061387    
N          1.250578723        0.6511633590        -2.476535179    
H         0.4498529334        0.4034136601E-01    -2.419182287    
CA        0.9818354308         1.970917190        -3.075343070    
HA        0.6536294550         1.801787233        -4.102674923    
CB       -0.2104717095         2.577476881        -2.318113338    
HB       -0.4741634752         3.540162534        -2.758379832    
HB        -1.073454845         1.913583929        -2.386771306    
HB        0.4538908634E-01     2.723081066        -1.267318495    
C          2.175873743         2.958820987        -3.141078775    
O          2.470204750         3.678840690        -2.177751026    
N          2.845545539         3.015943430        -4.301374942    
H          2.546829239         2.397882937        -5.044166483    
CH         3.989031951         3.891050834        -4.564608606    
HH         4.350673527         3.739940106        -5.583614695    
HH         4.799120880         3.668665876        -3.866834402    
HH         3.697246502         4.936632453        -4.445672307    
    52
Energy=    -37.0734907445091    
HH        -4.254111670        0.8080329581         5.435392618    
CH        -3.590631702         1.112767551         4.626912604    
HH        -4.152594288         1.160445100         3.694951848    
HH        -3.170449523         2.092823254         4.850032644    
C         -2.476205754        0.1005601088         4.488365816    
O         -1.303834544        0.4481007508         4.625870270    
N         -2.842868427        -1.150278261         4.208907315    
H         -3.831113349        -1.344508129         4.131601422    
CA        -1.911067257        -2.277318621         4.067993543    
HA        -1.116538388        -2.161206558         4.807264080    
CB        -2.677374042        -3.563374768         4.406989217    
HB        -1.995974073        -4.414931576         4.383954502    
HB        -3.107737476        -3.487178880         5.406648821    
HB        -3.475400520        -3.726928409         3.681011548    
C         -1.223856876        -2.367491536         2.683150597    
O        -0.2759997323        -3.141869446         2.512491315    
N         -1.685673704        -1.594802052         1.692171732    
H         -2.456618657       -0.9781570559         1.899466791    
CA        -1.137007882        -1.567113647        0.3326085954    
HA       -0.9974488212        -2.597986461        0.3983238383E-03
CB        -2.172173892       -0.9161875816       -0.5956621495    
HB        -3.117025992        -1.458849762       -0.5365662384    
HB        -2.334811356        0.1233297606       -0.3055726182    
HB        -1.816932925       -0.9462312208        -1.626700209    
C         0.2359975194       -0.8616648919        0.2459524690    
O         0.5703139878       -0.4430397618E-03     1.066955048    
N          1.021045937        -1.199255322       -0.7843025234    
H         0.6939345559        -1.916040745        -1.417835187    
CA         2.362643557       -0.6465774655        -1.015515640    
HA         2.894767648       -0.6231009589       -0.6267656777E-01
CB         3.111471828        -1.609344614        -1.946802982    
HB         2.614458399        -1.657536994        -2.917097385    
HB         4.135451046        -1.260823760        -2.089199064    
HB         3.140187229        -2.606657520        -1.505184643    
C          2.367030397        0.7973015244        -1.572761921    
O          3.389269310         1.484204014        -1.485262084    
N          1.239573555         1.259925215        -2.135034590    
H         0.4502780554        0.6307320068        -2.161185869    
CA         1.036708674         2.603539966        -2.700974038    
HA        0.8648400384E-01     2.563728035        -3.236264712    
CB        0.8421983796         3.609866532        -1.553937644    
HB        0.5360057326         4.575894450        -1.957105760    
HB        0.6656039370E-01     3.253431834       -0.8747827157    
HB         1.774166371         3.734116235        -1.001433567    
C          2.074495461         3.030962437        -3.774296890    
O          2.396167856         4.217522211        -3.911728316    
N          2.606427251         2.066482121        -4.540486491    
H          2.292493557         1.120249598        -4.374009634    
CH         3.604321094         2.279617340        -5.590015411    
HH         3.863405096         1.328951582        -6.060219288    
HH         4.508381604         2.719427591        -5.163681153    
HH         3.209212650         2.953846899        -6.352795829    
