    52
Energy=    -35.3503472283995    
HH        -4.616684572       -0.5405290915        -1.330369984    
CH        -4.759853399        -1.252994928       -0.5188182932    
HH        -5.776258447        -1.171286253       -0.1357149343    
HH        -4.590585955        -2.264073649       -0.8870945223    
C         -3.781462398       -0.9575656135        0.5949229081    
O         -2.986243768       -0.2345166230E-01    0.4902150668    
N         -3.829943784        -1.755346244         1.661084757    
H         -4.505724169        -2.504944976         1.666113618    
CA        -2.934789927        -1.624418123         2.813229655    
HA        -2.983555279       -0.5917566453         3.164787629    
CB        -3.443992793        -2.525057478         3.946382903    
HB        -3.424875648        -3.570184923         3.633120318    
HB        -2.807159783        -2.405385736         4.824088532    
HB        -4.464942123        -2.246632516         4.211810137    
C         -1.468759637        -1.935528278         2.439713443    
O         -1.182192396        -2.948365026         1.792100084    
N        -0.5438582587        -1.060627195         2.857414811    
H        -0.8658255265       -0.2724573763         3.402678554    
CA        0.8999830108        -1.123413510         2.578900253    
HA         1.307009403       -0.1607407429         2.893080758    
CB         1.543971972        -2.181203643         3.491589928    
HB         1.217569303        -3.179612481         3.198369328    
HB         1.259075719        -2.000031135         4.528861226    
HB         2.630523098        -2.125702592         3.414400136    
C          1.288252809        -1.243283609         1.079381224    
O          2.379369569        -1.720133492        0.7494556292    
N         0.4144096250       -0.8066255843        0.1610647973    
H        -0.4699428529       -0.4380803208        0.4834107458    
CA        0.6124943149       -0.9238918675        -1.290311126    
HA         1.061310957        -1.896921443        -1.498262929    
CB       -0.7680980696       -0.8994287886        -1.958908560    
HB       -0.6592776637        -1.062709958        -3.031852751    
HB        -1.246925497        0.6694387953E-01    -1.794500868    
HB        -1.395610949        -1.690591429        -1.546093029    
C          1.555598033        0.1446471612        -1.894601449    
O          2.053567673       -0.4442069622E-01    -3.009760310    
N          1.818930162         1.237129307        -1.160139899    
H          1.370577170         1.291380624       -0.2579505882    
CA         2.616235944         2.405160437        -1.569343742    
HA         2.523925399         3.142057378       -0.7693588471    
CB         4.102603641         2.003279427        -1.611049962    
HB         4.291406199         1.335901883        -2.452521096    
HB         4.376117351         1.497178235       -0.6839806529    
HB         4.729740400         2.889060977        -1.715956900    
C          2.112864939         3.126434385        -2.850136476    
O          1.074334316         2.780941972        -3.427663487    
N          2.829255086         4.178450993        -3.272622618    
H          3.658139934         4.418660863        -2.745310680    
CH         2.506683278         4.999551227        -4.441219074    
HH         3.256593762         5.782875636        -4.568044097    
HH         1.527859532         5.466638633        -4.313492981    
HH         2.488160595         4.381103786        -5.341096583    
    52
Energy=    -34.2706748148741    
HH        -6.287650040        -1.805057190       -0.5883231183    
CH        -5.645831844        -2.451262844        0.9319797417E-02
HH        -6.260247689        -3.114066969        0.6174096143    
HH        -5.012376621        -3.045312481       -0.6482861335    
C         -4.774837028        -1.608576111        0.9139823842    
O         -4.864085128       -0.3809413248        0.8863214886    
N         -3.933402356        -2.271035670         1.706897127    
H         -3.925219951        -3.278108258         1.637105888    
CA        -2.991907749        -1.657689944         2.651290715    
HA        -3.155837319       -0.5786996979         2.669791553    
CB        -3.296391697        -2.189181357         4.058881416    
HB        -3.135138481        -3.267789483         4.094828847    
HB        -2.642002228        -1.707353842         4.786699035    
HB        -4.332987975        -1.971715670         4.320641687    
C         -1.518657966        -1.885586159         2.247940858    
O         -1.191105197        -2.858836753         1.560270923    
N        -0.6287995308       -0.9883372669         2.695555597    
H        -0.9799833283       -0.2383371293         3.275921314    
CA        0.8208288958        -1.002000990         2.436359247    
HA         1.195687967       -0.3248424663E-01     2.769067341    
CB         1.486013862        -2.054798217         3.339499351    
HB         1.187591213        -3.057379916         3.031000010    
HB         1.189188231        -1.894825524         4.376892600    
HB         2.571203281        -1.969643661         3.270313778    
C          1.217219883        -1.086709659        0.9379475460    
O          2.259903035        -1.647756013        0.5847154086    
N         0.3854295680       -0.5302077491        0.4706559820E-01
H        -0.4516294731       -0.8761936465E-01    0.3985129572    
CA        0.5504444151       -0.6119794176        -1.410167195    
HA        0.8709396947        -1.624315218        -1.662993785    
CB       -0.8271428477       -0.3869392599        -2.047675323    
HB       -0.7558099646       -0.5115499902        -3.129036313    
HB        -1.181563598        0.6217413064        -1.829470955    
HB        -1.541031422        -1.114248828        -1.657817999    
C          1.611229450        0.3548098299        -1.990515336    
O          2.065211757        0.1512661369        -3.121758239    
N          2.019374884         1.375391960        -1.219775636    
H          1.595410860         1.447430518       -0.3070981903    
CA         2.950156980         2.451204574        -1.599097668    
HA         2.962128184         3.160770964       -0.7697132032    
CB         4.374021592         1.870033231        -1.685144672    
HB         4.465962193         1.219348202        -2.555354458    
HB         4.595524639         1.296413391       -0.7838672658    
HB         5.105206464         2.674685461        -1.767702534    
C          2.521952622         3.280716394        -2.841097635    
O          1.439060079         3.091784182        -3.409557457    
N          3.358651650         4.250554076        -3.238324623    
H          4.219452653         4.363475910        -2.719597861    
CH         3.123917314         5.151795881        -4.368169743    
HH         3.964649702         5.839195232        -4.480867130    
HH         2.214063970         5.732616529        -4.202648795    
HH         3.013214694         4.577112225        -5.290170814    
    52
Energy=    -34.6022075798548    
HH        -6.849255785        -2.185287086        0.3520345063E-01
CH        -5.907195395        -2.674893215        0.2791157009    
HH        -6.106973108        -3.644568403        0.7334304180    
HH        -5.322046402        -2.813364125       -0.6291888827    
C         -5.125329014        -1.820018384         1.251357346    
O         -5.587360210       -0.7463190644         1.638495189    
N         -3.944072092        -2.298448151         1.639911498    
H         -3.649393262        -3.184497734         1.254562786    
CA        -3.019079649        -1.631146422         2.563578991    
HA        -3.206993271       -0.5558533381         2.541172385    
CB        -3.299190165        -2.136413664         3.987144874    
HB        -3.115482115        -3.210435553         4.045797059    
HB        -2.649015381        -1.624614459         4.698010494    
HB        -4.337366771        -1.935019664         4.255004163    
C         -1.541557689        -1.848135011         2.168635831    
O         -1.204862664        -2.817699101         1.480228077    
N        -0.6597701374       -0.9466009007         2.623385578    
H         -1.019839584       -0.1982198264         3.200432231    
CA        0.7939020748       -0.9600653324         2.387739187    
HA         1.162220952        0.1148231027E-01     2.721828886    
CB         1.444610326        -2.007437378         3.307594758    
HB         1.151943404        -3.011862747         2.999512843    
HB         1.130364897        -1.842125349         4.339007901    
HB         2.530756774        -1.921871979         3.256155838    
C          1.216529289        -1.051900084        0.8970440028    
O          2.262558154        -1.619330029        0.5644388494    
N         0.4042539414       -0.4935714156       -0.1047931202E-01
H        -0.4372000568       -0.4612163822E-01    0.3239647564    
CA        0.5995179858       -0.5761918534        -1.464045649    
HA        0.9167729833        -1.591095413        -1.710573792    
CB       -0.7618295745       -0.3388707109        -2.131125501    
HB       -0.6679427777       -0.4630676613        -3.210820558    
HB        -1.112349460        0.6726019664        -1.919618125    
HB        -1.490056831        -1.060587945        -1.757819610    
C          1.680432567        0.3820269692        -2.020991539    
O          2.159752610        0.1728835153        -3.140701558    
N          2.077077843         1.401527301        -1.242848722    
H          1.631825076         1.478616436       -0.3407831328    
CA         3.023967582         2.470135708        -1.602124163    
HA         3.021063369         3.181465559       -0.7741704443    
CB         4.445458448         1.879097732        -1.653040153    
HB         4.553623613         1.225872193        -2.519472903    
HB         4.641505870         1.305982265       -0.7455661518    
HB         5.183901404         2.678570174        -1.719810555    
C          2.631086230         3.299730551        -2.855689468    
O          1.560623838         3.117018420        -3.449184243    
N          3.483713327         4.262802139        -3.235105794    
H          4.332786898         4.370934163        -2.696413245    
CH         3.282068809         5.163032496        -4.372124795    
HH         4.130029992         5.844300310        -4.466391019    
HH         2.372654821         5.750555893        -4.229417195    
HH         3.189158616         4.586997338        -5.295246580    
