    52
Energy=    -36.6039294733333    
HH        -1.274150966         3.868363306         2.494470104    
CH        -2.035090502         3.126423367         2.255152237    
HH        -2.961482351         3.373677716         2.772131065    
HH        -2.211300244         3.118634674         1.180379121    
C         -1.568240210         1.757718621         2.697432501    
O        -0.4863983292         1.627781744         3.269755512    
N         -2.382340195        0.7375208913         2.431420731    
H         -3.248938625        0.9352827650         1.953648438    
CA        -2.077226088       -0.6619707225         2.744031204    
HA        -1.649693517       -0.7031147465         3.747925776    
CB        -3.389242385        -1.457897988         2.766078263    
HB        -3.851289464        -1.445613263         1.777541032    
HB        -3.189307565        -2.491668040         3.051623513    
HB        -4.076912755        -1.020238789         3.491309861    
C         -1.046277063        -1.276697583         1.771501701    
O        -0.9685639379       -0.8878370082        0.6010826444    
N        -0.2774647332        -2.262624977         2.251309455    
H        -0.4148707301        -2.529020166         3.216205270    
CA        0.7646536803        -2.984553902         1.508214023    
HA         1.381456940        -3.496346554         2.249082085    
CB        0.1129179561        -4.095266322        0.6646344982    
HB       -0.5600859058        -3.666758098       -0.7956030208E-01
HB       -0.4598292771        -4.759130384         1.313892817    
HB        0.8845728530        -4.681529878        0.1631053842    
C          1.742929238        -2.050175762        0.7517609956    
O          2.547982927        -1.359524035         1.383756099    
N          1.678935099        -2.008921113       -0.5854857906    
H         0.9956834650        -2.596386579        -1.041706932    
CA         2.538436220        -1.179770322        -1.439956077    
HA         3.556079862        -1.223204778        -1.047519125    
CB         2.550570237        -1.810571156        -2.839287464    
HB         1.551275351        -1.774904248        -3.276161712    
HB         3.239908068        -1.263764311        -3.484213255    
HB         2.880967154        -2.848543614        -2.776471043    
C          2.141281959        0.3169677641        -1.491026451    
O          2.891337048         1.129503713        -2.040786845    
N         0.9797095088        0.6877697966       -0.9319973142    
H         0.4260589557       -0.3691217816E-01   -0.4884297369    
CA        0.4268237532         2.049850562       -0.8875075547    
HA       -0.5953609482         1.941884213       -0.5214825116    
CB         1.179887619         2.870961040        0.1729785239    
HB        0.6669502298         3.818790219        0.3397457587    
HB         1.213989853         2.321144590         1.113914444    
HB         2.198236490         3.071814335       -0.1611642006    
C         0.2803018994         2.746999702        -2.266965141    
O         0.3721379367         3.976103307        -2.371005422    
N         0.5265863175E-01     1.967466358        -3.335002518    
H        -0.1682969675E-01    0.9722467211        -3.172928110    
CH       -0.9962345770E-01     2.446936081        -4.709537690    
HH       -0.2787963213         1.606207151        -5.382626514    
HH       -0.9433795726         3.137053183        -4.775347130    
HH        0.8069522070         2.965844494        -5.027914217    
    52
Energy=    -30.6963195127377    
HH        -5.828172105         1.961932465         2.378955545    
CH        -5.307191319         1.007520802         2.312748382    
HH        -5.714253424        0.3179868947         3.051286623    
HH        -5.437191192        0.5895795574         1.315247978    
C         -3.832688076         1.212229157         2.580226244    
O         -3.402155177         2.339601240         2.825043701    
N         -3.068162240        0.1212844165         2.532766212    
H         -3.525071709       -0.7543743147         2.322429028    
CA        -1.618469514        0.9437257927E-01     2.754881412    
HA        -1.223917517         1.104473624         2.631636461    
CB        -1.345223655       -0.3146422770         4.213614339    
HB        -1.763826947        -1.300933414         4.420398232    
HB       -0.2703659178       -0.3258162496         4.401597266    
HB        -1.806321474        0.4089947918         4.887458898    
C        -0.9011681869       -0.7627981439         1.685961146    
O        -0.7849518402       -0.3283775682        0.5364458267    
N        -0.4311134205        -1.967330650         2.040168480    
H        -0.5714285814        -2.254112374         2.998301276    
CA        0.3008337554        -2.899499736         1.171338131    
HA        0.7709655485        -3.636501096         1.824828673    
CB       -0.7014158014        -3.684176509        0.3050771614    
HB        -1.244754579        -3.010145031       -0.3588928335    
HB        -1.418649029        -4.195793075        0.9485997756    
HB       -0.1733402358        -4.432446191       -0.2881541498    
C          1.475393822        -2.231986301        0.4123261114    
O          2.459229380        -1.824850604         1.037781775    
N          1.384475327        -2.099723607       -0.9173797793    
H         0.5543652599        -2.453242122        -1.371295545    
CA         2.412913356        -1.483872330        -1.765390305    
HA         3.388289580        -1.858456162        -1.449366052    
CB         2.173487847        -1.956341800        -3.205866148    
HB         1.209443318        -1.592835986        -3.565392144    
HB         2.962105890        -1.572842892        -3.854852777    
HB         2.187151704        -3.046582994        -3.246834126    
C          2.472735985        0.6138536860E-01    -1.677103544    
O          3.442651277        0.6626344867        -2.148960786    
N          1.457292479        0.7044951375        -1.081152107    
H         0.7086157567        0.1369671080       -0.6998566628    
CA         1.336590043         2.157232687       -0.8865120243    
HA        0.3109687640         2.328291960       -0.5551491041    
CB         2.242071403         2.588048861        0.2798799697    
HB         2.044876571         3.629679842        0.5359848416    
HB         2.039470276         1.969121434         1.155023658    
HB         3.290746345         2.482674629       -0.2514586987E-03
C          1.480605874         3.009988400        -2.175996024    
O          1.967419646         4.146539603        -2.136675006    
N          1.060338661         2.465892943        -3.328189869    
H         0.6690787302         1.535067181        -3.282297411    
CH         1.128646324         3.113567398        -4.639035174    
HH        0.7169907627         2.453952829        -5.405466413    
HH        0.5554869867         4.043033300        -4.629133165    
HH         2.166591570         3.341132531        -4.890804540    
    52
Energy=    -36.0052301474999    
HH        -5.469878363        -1.555426307         4.374544787    
CH        -4.516292237        -1.043215258         4.497751211    
HH        -4.643051729       -0.1929091786         5.166807752    
HH        -3.784616940        -1.730980934         4.919983840    
C         -4.025149668       -0.5518720486         3.155154890    
O         -4.687282622       -0.7606971782         2.139124957    
N         -2.858044278        0.9246657592E-01     3.149496793    
H         -2.391643055        0.2289003214         4.035151620    
CA        -2.242454397        0.6822950838         1.953214912    
HA        -3.028598984         1.153916043         1.360841609    
CB        -1.280691469         1.786318472         2.414806431    
HB       -0.4643508052         1.354419372         2.996030454    
HB       -0.8659815905         2.300256373         1.546648627    
HB        -1.815781467         2.513355778         3.027556447    
C         -1.536183342       -0.3369198671         1.027458895    
O         -1.169822292        0.1346565894E-01   -0.9796491483E-01
N         -1.338723781        -1.582134288         1.483390123    
H         -1.672161706        -1.784021908         2.414607045    
CA       -0.6395046398        -2.665339663        0.7790466808    
HA       -0.4304414793        -3.437681760         1.521378776    
CB        -1.588731779        -3.314633472       -0.2440955186    
HB        -1.886648955        -2.591492738        -1.004618947    
HB        -2.483284648        -3.675949235        0.2652841512    
HB        -1.094493982        -4.161784139       -0.7222660328    
C         0.7501095206        -2.245675558        0.2391736632    
O          1.688164775        -2.075376057         1.023860498    
N         0.8937753353        -2.058503466        -1.079133097    
H         0.8788287156E-01    -2.211890922        -1.668322340    
CA         2.140979369        -1.632834982        -1.726363692    
HA         2.962251127        -2.221019736        -1.312726099    
CB         2.029192672        -1.965693310        -3.220214559    
HB         1.221191330        -1.389807686        -3.674416658    
HB         2.966064555        -1.720424561        -3.722523674    
HB         1.831546908        -3.030847830        -3.350074036    
C          2.493201222       -0.1413229740        -1.503818996    
O          3.640340688        0.2560873218        -1.729255288    
N          1.527808426        0.6783817519        -1.061221472    
H         0.6165614325        0.2683499102       -0.8882846141    
CA         1.665584539         2.111198094       -0.7607636905    
HA        0.6495931265         2.484916715       -0.6233053033    
CB         2.371831889         2.276662332        0.5955742248    
HB         2.336252519         3.321543446        0.9060669129    
HB         1.870998116         1.670503921         1.351608153    
HB         3.413521905         1.963708011        0.5165720247    
C          2.249117304         2.974264068        -1.911896886    
O          2.936389271         3.974477905        -1.672224348    
N          1.980701553         2.591828685        -3.169608748    
H          1.408712603         1.766936240        -3.288102112    
CH         2.454331417         3.272821919        -4.375581124    
HH         2.089051368         2.757021167        -5.265801050    
HH         2.092545528         4.303046123        -4.391880468    
HH         3.546113136         3.281313569        -4.396671808    
