    52
Energy=    -37.9728100101834    
HH        -4.758566794        -3.090633855        0.9661138031E-02
CH        -3.714182672        -3.366620496        0.1501787269    
HH        -3.366683321        -3.931592345       -0.7140668993    
HH        -3.617400140        -3.976026106         1.047899070    
C         -2.884493933        -2.113348573        0.3042676665    
O         -1.969583363        -1.874377674       -0.4827350485    
N         -3.185052093        -1.320914597         1.333828830    
H         -3.951215863        -1.596286165         1.931896378    
CA        -2.542920290       -0.2559874170E-01     1.595813122    
HA        -2.661297253        0.5993843470        0.7087511394    
CB        -3.292807831        0.6463254341         2.753648214    
HB        -3.197778425        0.4743732502E-01     3.660979765    
HB        -2.874109418         1.637122415         2.936212483    
HB        -4.348584588        0.7540554067         2.500417822    
C         -1.027274499       -0.1204308405         1.887387481    
O        -0.2930939592        0.8478606721         1.670187313    
N        -0.5376486789        -1.290577920         2.317940295    
H         -1.194580724        -2.038917444         2.487931416    
CA        0.8824775003        -1.558622334         2.573039106    
HA         1.254185087       -0.8044604528         3.269188049    
CB        0.9854137810        -2.928806070         3.255679126    
HB        0.6239390721        -3.710572754         2.585494634    
HB        0.3921104341        -2.933966767         4.171319707    
HB         2.025779690        -3.133905055         3.512155057    
C          1.770976208        -1.490771990         1.307340242    
O          2.988276205        -1.317601202         1.418997448    
N          1.180129045        -1.582450229        0.1075992691    
H         0.1824743609        -1.753083831        0.7729250301E-01
CA         1.874537781        -1.414203067        -1.174313075    
HA         2.850191311        -1.898629489        -1.104869508    
CB         1.065675223        -2.150448250        -2.250311962    
HB        0.9375071769E-01    -1.672636337        -2.380196616    
HB         1.603670133        -2.121479562        -3.198652649    
HB        0.9214435462        -3.192274885        -1.960717332    
C          2.131368745        0.6427538944E-01    -1.561600263    
O          2.876512823        0.3218065696        -2.513313111    
N          1.545442321         1.022339995       -0.8247455769    
H         0.9729985691        0.7167046081       -0.4920110650E-01
CA         1.574001618         2.472131733        -1.072267491    
HA        0.9046343758         2.923634446       -0.3376682665    
CB         2.982249150         3.007611542       -0.7525419752    
HB         3.696159248         2.669980359        -1.504487308    
HB         2.975997647         4.097850179       -0.7372462849    
HB         3.300070858         2.652426612        0.2289126966    
C          1.021259390         2.913342238        -2.455265124    
O         0.5520384180         2.099620674        -3.260854296    
N          1.029100614         4.228683237        -2.716257956    
H          1.411646278         4.841337931        -2.008330347    
CH        0.5325889792         4.843030515        -3.949050499    
HH       -0.5293069966         4.622754930        -4.077207602    
HH        0.6650239619         5.926013124        -3.908429237    
HH         1.080458052         4.453507148        -4.809689164    
    52
Energy=    -34.1909493792670    
HH        -4.740259436        -3.119876756        0.2781723308E-01
CH        -3.693536353        -3.388505478        0.1652231341    
HH        -3.344884940        -3.951520319       -0.6998462783    
HH        -3.589665186        -3.996831152         1.062894135    
C         -2.872013512        -2.129454442        0.3159742062    
O         -1.961194451        -1.884791807       -0.4739801349    
N         -3.174700828        -1.338409817         1.346113747    
H         -3.936916062        -1.619731590         1.946217470    
CA        -2.539892796       -0.3716773524E-01     1.604605428    
HA        -2.651346070        0.5699135700        0.7041218730    
CB        -3.299880820        0.6702838891         2.743307972    
HB        -4.095876720        0.4114104160E-01     3.144840675    
HB        -2.618802868        0.9255850350         3.556827229    
HB        -3.743851688         1.591037020         2.362686372    
C         -1.022254110       -0.1245680394         1.892211315    
O        -0.2932016308        0.8466576159         1.670952918    
N        -0.5261170006        -1.291381603         2.324190434    
H         -1.179286108        -2.042047841         2.498473696    
CA        0.8958771007        -1.552280540         2.576426097    
HA         1.265665204       -0.7950928076         3.270314158    
CB         1.006821629        -2.920679768         3.261393035    
HB        0.6474330165        -3.705391672         2.593530628    
HB        0.4157040870        -2.926892731         4.178440401    
HB         2.048733876        -3.120438243         3.515804787    
C          1.781230368        -1.482694601         1.308605302    
O          2.997912155        -1.303399763         1.417244482    
N          1.188241045        -1.579669793        0.1103349914    
H         0.1913708050        -1.755199805        0.8247913476E-01
CA         1.879174533        -1.410965079        -1.173409708    
HA         2.857279908        -1.890558844        -1.104910353    
CB         1.071663895        -2.153514675        -2.246088761    
HB        0.9724021104E-01    -1.680598940        -2.375148399    
HB         1.607633481        -2.124201314        -3.195565336    
HB        0.9329366140        -3.195339304        -1.953809364    
C          2.128153628        0.6784370603E-01    -1.564548114    
O          2.869947964        0.3267685591        -2.518495472    
N          1.539353524         1.024776001       -0.8285113943    
H         0.9700942351        0.7181797408       -0.5101288205E-01
CA         1.560536244         2.474133226        -1.079319235    
HA        0.8906770256         2.924130793       -0.3442444814    
CB         2.966952955         3.016938128       -0.7639137422    
HB         3.680778200         2.680995350        -1.516695642    
HB         2.955605352         4.107166841       -0.7510167642    
HB         3.288616086         2.665435755        0.2176153317    
C          1.002668333         2.909640004        -2.462067478    
O         0.5354074440         2.091925479        -3.264746328    
N          1.003838150         4.224404911        -2.726059765    
H          1.385133470         4.840433267        -2.020388661    
CH        0.5017257255         4.833640174        -3.959121073    
HH       -0.5594251872         4.608170400        -4.084383988    
HH        0.6292420626         5.917312789        -3.921256213    
HH         1.049457738         4.444690964        -4.820106619    
    52
Energy=    -37.9728100101833    
HH        -4.732047594        -3.130840596        0.4049880993E-01
CH        -3.685024445        -3.397051638        0.1802350486    
HH        -3.334760212        -3.964480856       -0.6812802116    
HH        -3.580947869        -3.999947818         1.081527527    
C         -2.865675158        -2.135828701        0.3244597355    
O         -1.954684388        -1.894051743       -0.4662244173    
N         -3.170547893        -1.339510216         1.349746275    
H         -3.932931786        -1.617611486         1.951370494    
CA        -2.538852885       -0.3715999075E-01     1.602050626    
HA        -2.664631040        0.5811963112        0.7113703992    
CB        -3.291710073        0.6356445162         2.757444788    
HB        -4.348958043        0.7328012841         2.506082018    
HB        -3.189453031        0.4331097835E-01     3.668286470    
HB        -2.881034031         1.631094010         2.932779383    
C         -1.021773502       -0.1172700227         1.890570006    
O        -0.2963756532        0.8558390940         1.665532137    
N        -0.5211927278        -1.280479414         2.327280608    
H         -1.171328604        -2.033289626         2.503544214    
CA        0.9017596968        -1.534833603         2.580641844    
HA         1.268668752       -0.7731714044         3.271147793    
CB         1.017961582        -2.899767406         3.271619094    
HB        0.6615810869        -3.688782376         2.607225622    
HB        0.4268776942        -2.904204340         4.188697780    
HB         2.060635908        -3.094398396         3.526875339    
C          1.786670797        -1.467406176         1.312409566    
O          3.002711531        -1.283196893         1.420050678    
N          1.193806897        -1.571655153        0.1146916423    
H         0.1975725404        -1.750948521        0.8785512134E-01
CA         1.883742777        -1.405588080        -1.169917269    
HA         2.863645246        -1.881259383        -1.099780636    
CB         1.078649628        -2.155440522        -2.239326239    
HB        0.1023903002        -1.686732168        -2.369870099    
HB         1.614147602        -2.127873043        -3.189120804    
HB        0.9439729378        -3.196611068        -1.942852551    
C          2.127067506        0.7255161290E-01    -1.567092525    
O          2.867753289        0.3304079720        -2.522191485    
N          1.534740114         1.030223174       -0.8348590667    
H         0.9667432232        0.7246235882       -0.5603785271E-01
CA         1.550375022         2.478618018        -1.091543201    
HA        0.8789170528         2.929032748       -0.3581851747    
CB         2.954760811         3.028047794       -0.7785709680    
HB         3.669749821         2.691767428        -1.530096389    
HB         2.939264753         4.118268639       -0.7701032453    
HB         3.277900467         2.681763192        0.2043267816    
C         0.9906478315         2.906398948        -2.475949961    
O         0.5264787450         2.083663287        -3.275285997    
N         0.9866780926         4.220089725        -2.745210950    
H          1.365657365         4.840418298        -2.042064005    
CH        0.4820584703         4.822421333        -3.980637804    
HH       -0.5782219169         4.592326506        -4.104857430    
HH        0.6053636629         5.906724639        -3.947132277    
HH         1.031199950         4.432157342        -4.840129244    
