    52
Energy=    -38.6822893616431    
HH        -6.053058874         1.267457934         1.447717239    
CH        -6.205979933        0.3995467298         2.087968983    
HH        -7.243318162        0.7405899699E-01     2.019615842    
HH        -5.973601302        0.6636702623         3.118896261    
C         -5.290599921       -0.7181467781         1.640274123    
O         -5.764377399        -1.794409954         1.274853337    
N         -3.983958030       -0.4591954638         1.671526405    
H         -3.696021918        0.4511875097         2.001048682    
CA        -2.922322111        -1.399098620         1.292450039    
HA        -3.288791769        -2.420178817         1.415467182    
CB        -2.587797706        -1.184422652       -0.1918366717    
HB        -1.830211930        -1.901196217       -0.5112827579    
HB        -2.209468755       -0.1728095779       -0.3474935654    
HB        -3.482689552        -1.329226592       -0.7986758809    
C         -1.666212109        -1.252464752         2.179540107    
O         -1.441354478       -0.2090289278         2.802932359    
N        -0.8255305776        -2.293286206         2.213737041    
H         -1.070558468        -3.120692880         1.687062577    
CA        0.4047183320        -2.337885785         3.016792062    
HA        0.1857873167        -1.929905428         4.005312719    
CB        0.7944616091        -3.811524227         3.194274528    
HB         1.033015376        -4.256045259         2.226656089    
HB       -0.2887670020E-01    -4.361592907         3.652447850    
HB         1.667981533        -3.884930379         3.843645602    
C          1.574161423        -1.507106330         2.434042791    
O          2.543724555        -1.223302533         3.145225825    
N          1.490423314        -1.111337172         1.158030562    
H         0.6644432765        -1.377131973        0.6420737752    
CA         2.476620657       -0.2893237748        0.4482935928    
HA         3.025316388        0.3177738385         1.171084254    
CB         3.474347753        -1.222843354       -0.2537665870    
HB         4.241274716       -0.6345847106       -0.7594176766    
HB         2.955538903        -1.839087188       -0.9898072280    
HB         3.957112522        -1.870036013        0.4798180862    
C          1.808563829        0.6782946048       -0.5539479444    
O         0.6708134681        0.4614197521       -0.9874336955    
N          2.523935046         1.740980368       -0.9369012306    
H          3.453713072         1.850853915       -0.5587863044    
CA         2.067070732         2.735311031        -1.913537253    
HA         1.037127177         3.005082005        -1.670887911    
CB         2.925280383         3.998543137        -1.759870279    
HB         2.564067809         4.775315988        -2.435298690    
HB         2.862100928         4.368406808       -0.7353420414    
HB         3.966175731         3.775552841        -1.999877298    
C          2.077593369         2.203005311        -3.366293316    
O          2.840271379         1.290973741        -3.710243702    
N          1.244148204         2.796767505        -4.231801846    
H         0.6598965041         3.543650223        -3.879387091    
CH         1.118121220         2.445639721        -5.647435197    
HH        0.8164885946         1.401065637        -5.749823818    
HH         2.073691964         2.588835366        -6.156332089    
HH        0.3667429103         3.077401043        -6.125307835    
    52
Energy=    -37.9137093044245    
HH        -6.884279260        0.6579316208         1.251866110    
CH        -6.223655827        0.3951925478         2.076848693    
HH        -6.810068668        0.4452600507E-01     2.924914519    
HH        -5.655955604         1.276167611         2.374504327    
C         -5.293411897       -0.7120687298         1.629338837    
O         -5.764631680        -1.786964939         1.257360008    
N         -3.985598322       -0.4554843989         1.664985608    
H         -3.694645570        0.4520952707         1.999053204    
CA        -2.925223519        -1.396391198         1.284354681    
HA        -3.293647433        -2.417211650         1.403643880    
CB        -2.588019101        -1.177613032       -0.1987450206    
HB        -1.831305960        -1.894806570       -0.5193217746    
HB        -2.207529224       -0.1662353154       -0.3506276288    
HB        -3.482238576        -1.318796696       -0.8074256098    
C         -1.670114778        -1.254865752         2.173683873    
O         -1.444346786       -0.2137239788         2.800565072    
N        -0.8313630400        -2.297298607         2.205924883    
H         -1.077099077        -3.122654096         1.676363759    
CA        0.3975912560        -2.346587957         3.010690727    
HA        0.1779286262        -1.941160660         4.000099652    
CB        0.7843240358        -3.821474575         3.184347983    
HB         1.023512703        -4.263544174         2.215763649    
HB       -0.4072817385E-01    -4.371374566         3.639631643    
HB         1.656723005        -3.898452135         3.834811711    
C          1.569457497        -1.516248751         2.432197809    
O          2.538463802        -1.236374617         3.145692166    
N          1.488388642        -1.116509795         1.157251015    
H         0.6627161618        -1.379247889        0.6392404836    
CA         2.477199269       -0.2942329107        0.4514626587    
HA         3.026002930        0.3096033525         1.176898398    
CB         3.474159109        -1.227532542       -0.2519788725    
HB         4.242963292       -0.6392191556       -0.7547071063    
HB         2.955248591        -1.840527373       -0.9906561821    
HB         3.954594388        -1.877889370        0.4803357742    
C          1.812471652        0.6777242457       -0.5487928835    
O         0.6748908249        0.4644340737       -0.9844967184    
N          2.530494492         1.740121808       -0.9275595152    
H          3.459963527         1.846997539       -0.5478288021    
CA         2.076981806         2.738288688        -1.901841951    
HA         1.047235729         3.009380857        -1.659827671    
CB         2.937483389         3.999341725        -1.743175181    
HB         2.578766736         4.778857781        -2.416770923    
HB         2.873597042         4.366251551       -0.7176291867    
HB         3.978270332         3.775000444        -1.982392046    
C          2.088492787         2.210327782        -3.356175269    
O          2.849836517         1.297812180        -3.701793749    
N          1.257453529         2.808348561        -4.221065035    
H         0.6741941132         3.555334424        -3.867227928    
CH         1.132724421         2.461725794        -5.637923123    
HH        0.8291582853         1.418067545        -5.743874831    
HH         2.089294877         2.604543206        -6.145045041    
HH        0.3832794286         3.096416624        -6.114949073    
    52
Energy=    -38.6822893616460    
HH        -7.251249956        0.7963007000E-01     1.990732277    
CH        -6.213408310        0.4021455846         2.065253936    
HH        -5.984572971        0.6594436689         3.098696824    
HH        -6.055777695         1.273542690         1.430906494    
C         -5.298942813       -0.7150616356         1.614486900    
O         -5.773852206        -1.787922369         1.240627582    
N         -3.991812007       -0.4595179902         1.652592271    
H         -3.703000033        0.4481405829         1.988795854    
CA        -2.930937859        -1.399714138         1.272112441    
HA        -3.300387869        -2.420616934         1.387447457    
CB        -2.589872903        -1.176870909       -0.2094796028    
HB        -1.832744298        -1.893556033       -0.5302054435    
HB        -2.208454342       -0.1652664079       -0.3574630163    
HB        -3.482645261        -1.315794282       -0.8207988611    
C         -1.678083928        -1.261547183         2.165146322    
O         -1.453218074       -0.2224640172         2.795764033    
N        -0.8400840260        -2.304620565         2.196423250    
H         -1.084986478        -3.128215693         1.663750445    
CA        0.3867846843        -2.357110036         3.004158904    
HA        0.1648389677        -1.954589814         3.994244464    
CB        0.7722164312        -3.832750671         3.174268235    
HB         1.013610838        -4.271985737         2.204941877    
HB       -0.5431033270E-01    -4.383559356         3.625763104    
HB         1.642913565        -3.912237728         3.826707210    
C          1.560601097        -1.525692705         2.431194146    
O          2.527959063        -1.248588135         3.147999692    
N          1.483003880        -1.121994458         1.157279350    
H         0.6584792503        -1.382626395        0.6363845143    
CA         2.474070377       -0.2981229393        0.4565363845    
HA         3.021305246        0.3032333027         1.185210193    
CB         3.472362411        -1.229821724       -0.2471375818    
HB         4.242764007       -0.6403974333       -0.7461051280    
HB         2.955045558        -1.840317253       -0.9889956482    
HB         3.950570398        -1.882632193        0.4844512695    
C          1.812442291        0.6771898113       -0.5425064967    
O         0.6759353851        0.4657433890       -0.9818957827    
N          2.531945745         1.740414348       -0.9161086873    
H          3.460446844         1.845708590       -0.5335788153    
CA         2.081468799         2.741764526        -1.888530777    
HA         1.051209283         3.012592271        -1.648413147    
CB         2.942120922         4.001928165        -1.723733231    
HB         2.585543174         4.783665002        -2.395889425    
HB         2.875686891         4.365731818       -0.6972429474    
HB         3.983435274         3.777837167        -1.960880461    
C          2.096588207         2.218246350        -3.344436134    
O          2.858433022         1.306443258        -3.690830131    
N          1.268108038         2.819288787        -4.209686384    
H         0.6842512882         3.565456649        -3.855109428    
CH         1.146969614         2.477055336        -5.627922278    
HH        0.8432127613         1.433865621        -5.737866283    
HH         2.104942388         2.620981503        -6.132074940    
HH        0.3990759584         3.113546044        -6.104984800    
