    52
Energy=    -39.4803374114733    
HH        -5.777162947        -1.697466640        0.5090005411    
CH        -4.791921420        -2.099829500        0.2764670984    
HH        -4.691589598        -3.091108134        0.7168764991    
HH        -4.670806262        -2.166310489       -0.8041866297    
C         -3.733378737        -1.187258333        0.8507775854    
O         -2.902757399       -0.6595308019        0.1131888512    
N         -3.743516027        -1.018517574         2.173116598    
H         -4.460563098        -1.493700085         2.702694303    
CA        -2.846173164       -0.1092287307         2.899439601    
HA        -2.924746710        0.8798786028         2.444615401    
CB        -3.352556322       -0.6965021376E-02     4.344475901    
HB        -3.285714387       -0.9794101273         4.835083819    
HB        -2.745803044        0.7121229821         4.896634204    
HB        -4.389602117        0.3318836744         4.352394551    
C         -1.351852911       -0.5109200151         2.851745314    
O        -0.4797292217        0.3176996491         3.130004265    
N         -1.043953477        -1.760045925         2.479610801    
H         -1.807492583        -2.395506695         2.298439282    
CA        0.3209480778        -2.271984031         2.315911874    
HA        0.9410568966        -1.866778985         3.117552314    
CB        0.2717123956        -3.796168788         2.488909134    
HB       -0.3280991215        -4.244890814         1.695431295    
HB       -0.1635956215        -4.046695010         3.457495651    
HB         1.282351010        -4.204366778         2.444118608    
C         0.9919619810        -1.868874684        0.9793259757    
O          2.202389380        -2.059575918        0.8191283562    
N         0.2368007426        -1.320471683        0.1789059670E-01
H        -0.7460829310        -1.172342845        0.2048366962    
CA        0.7497837673       -0.8878466735        -1.286151208    
HA         1.402710448        -1.673295762        -1.672449222    
CB       -0.4294632672       -0.7501040624        -2.258230271    
HB        -1.096118385        0.4686550781E-01    -1.925830580    
HB       -0.6005695754E-01   -0.5087278563        -3.255783572    
HB       -0.9841383859        -1.688312371        -2.306386642    
C          1.584244297        0.4116657261        -1.208375783    
O          1.406808766         1.237903030       -0.3050193822    
N          2.482642823        0.6061940628        -2.179771357    
H          2.565646627       -0.9694778793E-01    -2.899458340    
CA         3.325554795         1.800387426        -2.298677443    
HA         3.735941283         2.028914494        -1.312919390    
CB         4.503855227         1.474129229        -3.226678463    
HB         5.178656468         2.329479477        -3.282087774    
HB         5.056325866        0.6170219083        -2.838595705    
HB         4.138701919         1.244752566        -4.229099779    
C          2.542205327         3.046421612        -2.775832649    
O          1.510152630         2.936515192        -3.450055435    
N          3.052318872         4.241412172        -2.447105645    
H          3.906054289         4.251026650        -1.904470624    
CH         2.466960983         5.531520520        -2.816107946    
HH         1.457175656         5.615945000        -2.408911300    
HH         3.075539815         6.346803371        -2.419874790    
HH         2.418374054         5.624639067        -3.903105183    
    52
Energy=    -31.8122798526767    
HH        -6.298403548       -0.7377606290         3.280192609    
CH        -5.791956849        -1.192078369         2.429419326    
HH        -5.669032210        -2.259595859         2.608139129    
HH        -6.384441768        -1.038922590         1.528112082    
C         -4.432513687       -0.5533046201         2.259477457    
O         -4.145860448        0.2366158921E-01     1.211069849    
N         -3.590862006       -0.6655856056         3.287388829    
H         -3.919192063        -1.142813781         4.115055752    
CA        -2.246407785       -0.7416310866E-01     3.324494015    
HA        -2.309721035        0.9435257805         2.934911182    
CB        -1.814420021        0.1344458628E-01     4.794719341    
HB        -1.729911365       -0.9872430412         5.221577529    
HB       -0.8468117278        0.5123787992         4.864607255    
HB        -2.546171439        0.5889012738         5.363714794    
C         -1.195569001       -0.8207018118         2.465961101    
O        -0.1352259519       -0.2551642134         2.188750897    
N         -1.495691497        -2.067237866         2.065189940    
H         -2.386320601        -2.412626501         2.390995091    
CA       -0.7558321426        -2.992549696         1.187493113    
HA       -0.5843907116        -3.902737119         1.764948734    
CB        -1.679299811        -3.382009755        0.2144086960E-01
HB        -1.959005845        -2.499762286       -0.5563599237    
HB        -2.585034825        -3.851365075        0.4083004205    
HB        -1.169761647        -4.093062676       -0.6308077709    
C         0.6440110027        -2.540978706        0.7009549513    
O          1.660523366        -3.003552348         1.230263229    
N         0.7001209900        -1.658220795       -0.3041729320    
H        -0.1750083791        -1.310654205       -0.6687629400    
CA         1.926384155        -1.083498878       -0.8664247011    
HA         2.709499403        -1.099088634       -0.1058731702    
CB         2.381797173        -1.956438105        -2.045443857    
HB         1.619591206        -1.957177155        -2.826263699    
HB         3.313209204        -1.566160779        -2.457838844    
HB         2.550320598        -2.979762012        -1.707206422    
C          1.732002374        0.3870898996        -1.297603559    
O         0.6112659275        0.8266179159        -1.582330914    
N          2.831523562         1.144673703        -1.369807366    
H          3.718641793        0.7193866308        -1.142769022    
CA         2.842992957         2.544536804        -1.807162658    
HA         2.021021348         3.064727658        -1.311013825    
CB         4.152558524         3.191184161        -1.335028284    
HB         4.156991636         4.250397244        -1.595984461    
HB         4.244070986         3.097184764       -0.2518626685    
HB         5.004199119         2.704403847        -1.813096560    
C          2.638225980         2.701632085        -3.332733827    
O          2.943789325         1.795237823        -4.118160356    
N          2.143002553         3.872546676        -3.756999915    
H          1.928491813         4.569812979        -3.056139058    
CH         1.891565063         4.216837494        -5.157518824    
HH         1.175791542         3.516793835        -5.593652240    
HH         1.483546911         5.227077909        -5.228170635    
HH         2.821708155         4.172162561        -5.727989063    
    52
Energy=    -36.0448810454903    
HH        -5.371699583        -2.830589383         5.506446633    
CH        -5.235984853        -3.107822284         4.461730495    
HH        -4.449539661        -3.857617650         4.384650938    
HH        -6.167192958        -3.514035152         4.068426311    
C         -4.839657176        -1.883326834         3.668680118    
O         -5.541272235        -1.496642402         2.734459478    
N         -3.709466482        -1.278754291         4.035142276    
H         -3.206238130        -1.658912636         4.824140394    
CA        -3.186755607       -0.5457443059E-01     3.413962566    
HA        -4.020559070        0.6311607838         3.252984177    
CB        -2.225813058        0.6038028830         4.413001075    
HB        -1.368758222       -0.4700324984E-01     4.593379884    
HB        -1.871505753         1.553679064         4.010345609    
HB        -2.741359231        0.7937259187         5.355559054    
C         -2.511075822       -0.2738468018         2.037977022    
O         -2.315255772        0.6944954328         1.295508151    
N         -2.181761237        -1.528652337         1.692765516    
H         -2.401031281        -2.249752286         2.363853961    
CA        -1.456654408        -1.952927023        0.4839175877    
HA        -1.273406675        -3.023777333        0.5902235579    
CB        -2.383862868        -1.796616394       -0.7359363595    
HB        -2.535454823       -0.7410658217       -0.9639092989    
HB        -3.349357829        -2.261140944       -0.5299341863    
HB        -1.946725403        -2.285608231        -1.606961733    
C        -0.5342160195E-01    -1.313238386        0.3026845783    
O         0.4287855425       -0.5459957906         1.144652137    
N         0.6359215580        -1.672836979       -0.7863813175    
H         0.1992805276        -2.310150712        -1.435989806    
CA         1.967527272        -1.163036760        -1.129934901    
HA         2.589947901        -1.198746061       -0.2334065807    
CB         2.596475449        -2.102073779        -2.168294043    
HB         2.007033899        -2.093540365        -3.086606899    
HB         3.611771310        -1.774217906        -2.395979707    
HB         2.636684404        -3.118673379        -1.774152261    
C          1.942761905        0.3029687534        -1.621157890    
O         0.9364448197        0.7844470715        -2.155945237    
N          3.068730524         1.007485021        -1.465607175    
H          3.861698730        0.5500325337        -1.039949636    
CA         3.246532732         2.391494744        -1.917024959    
HA         2.364447611         2.963521788        -1.621924267    
CB         4.454248444         2.991300337        -1.183728298    
HB         4.569427748         4.040858523        -1.457975577    
HB         4.304124466         2.925874026       -0.1050039942    
HB         5.363072593         2.451805194        -1.455357595    
C          3.385300833         2.511797603        -3.453335597    
O          3.806120940         1.568856209        -4.135703099    
N          3.055088470         3.691091890        -3.997857782    
H          2.730486806         4.418447687        -3.374159862    
CH         3.130939516         4.004195448        -5.425937877    
HH         2.491160552         3.325302896        -5.993734600    
HH         2.800898200         5.029705593        -5.603306580    
HH         4.158897285         3.899126001        -5.779294398    
