    52
Energy=    -36.6039294733316    
HH       -0.8012858416         4.098726443         2.316995111    
CH        -1.640881462         3.429525902         2.132531785    
HH        -2.522805551         3.797500035         2.655416682    
HH        -1.845215561         3.387189053         1.063558934    
C         -1.306515519         2.043003851         2.635194401    
O        -0.2291943125         1.829048362         3.190551170    
N         -2.228433938         1.101653710         2.439616345    
H         -3.082237255         1.365136441         1.970611330    
CA        -2.061481112       -0.3049336994         2.817816407    
HA        -1.614183469       -0.3409788624         3.813259423    
CB        -3.447701706       -0.9572385325         2.908722354    
HB        -3.348238349        -1.990894043         3.243167960    
HB        -4.067096244       -0.4148244080         3.624637368    
HB        -3.931895234       -0.9454923508         1.930835379    
C         -1.125586725        -1.071325255         1.856929163    
O         -1.038968022       -0.7509444858        0.6665569521    
N        -0.4504270695        -2.107361876         2.370863256    
H        -0.5891557977        -2.309996533         3.350947063    
CA        0.4915385089        -2.970084901         1.644369754    
HA         1.071445787        -3.506391373         2.397593743    
CB       -0.2935204058        -4.046816051        0.8733960418    
HB       -0.9380039817        -3.587522696        0.1223501460    
HB       -0.9145096850        -4.614303024         1.568106121    
HB        0.3999144020        -4.734583237        0.3867625531    
C          1.540878988        -2.181592662        0.8200692657    
O          2.429384759        -1.548575999         1.398322205    
N          1.446271917        -2.199899204       -0.5158725514    
H         0.6941715553        -2.734486181       -0.9265403098    
CA         2.364055448        -1.508344168        -1.430081333    
HA         3.381745518        -1.638539971        -1.057458375    
CB         2.274038124        -2.205222155        -2.794794929    
HB         1.272618035        -2.086853060        -3.211769831    
HB         2.998966925        -1.765985068        -3.481571937    
HB         2.496914712        -3.267683178        -2.685262053    
C          2.122532758        0.1736588093E-01    -1.550248810    
O          2.937807924        0.7188958287        -2.157056791    
N          1.020649129        0.5347267130       -0.9868231203    
H         0.4069402742       -0.1053156859       -0.4947334303    
CA        0.6128830696         1.947682004        -1.001320375    
HA       -0.4049829416         1.965387502       -0.6087290755    
CB         1.474473187         2.736858912       -0.9101702736E-03
HB         1.066830642         3.740196386        0.1272994264    
HB         1.476346332         2.233586772        0.9663204883    
HB         2.498966822         2.813391441       -0.3664007879    
C         0.5029039146         2.587419097        -2.411650060    
O         0.7185215682         3.793542877        -2.581144490    
N         0.1678346913         1.784225081        -3.432828547    
H         0.1424484358E-03    0.8109429181        -3.217979735    
CH        0.2975683750E-01     2.208588061        -4.826843810    
HH       -0.2530350121         1.359025792        -5.451543200    
HH        0.9764063218         2.613508775        -5.190715983    
HH       -0.7395851038         2.979060623        -4.910521125    
    52
Energy=    -33.0442280476502    
HH       -0.7659216030         4.052157045         1.963807655    
CH        -1.611936939         3.389590486         1.784446431    
HH        -2.499537379         3.791190028         2.271882037    
HH        -1.792356575         3.310276078        0.7133319371    
C         -1.312844310         2.018354701         2.347879446    
O        -0.2571523633         1.811776714         2.945738253    
N         -2.240356936         1.081676317         2.155738389    
H         -3.075548259         1.338345190         1.650760189    
CA        -2.109757418       -0.3093579963         2.600417433    
HA        -1.737896861       -0.3057289554         3.627064182    
CB        -3.502868046       -0.9532099593         2.613424761    
HB        -3.435132171        -1.972769593         2.995661849    
HB        -4.170752264       -0.3804182008         3.258601660    
HB        -3.912531265       -0.9796232205         1.602315420    
C         -1.109559559        -1.118293478         1.744565296    
O        -0.9221159699       -0.8405269927        0.5549944504    
N        -0.4915193054        -2.142284620         2.346930411    
H        -0.7132882745        -2.310557605         3.318210521    
CA        0.5040876460        -3.031129021         1.732337542    
HA         1.006911182        -3.552389898         2.548868330    
CB       -0.2171347956        -4.121265151        0.9189257203    
HB       -0.7836442205        -3.676738535        0.9927883350E-01
HB       -0.9063396548        -4.664997459         1.566720111    
HB        0.5112580441        -4.827442067        0.5171339555    
C          1.631994434        -2.270227379        0.9901386673    
O          2.462539644        -1.620645082         1.632631100    
N          1.667858293        -2.329156562       -0.3473910694    
H         0.9579868853        -2.875721150       -0.8136338027    
CA         2.672424959        -1.664567513        -1.187729942    
HA         3.648432289        -1.783171106       -0.7135409129    
CB         2.715002521        -2.402863970        -2.532657898    
HB         1.759917727        -2.296126755        -3.049489032    
HB         3.505441473        -1.984754332        -3.157451382    
HB         2.922229885        -3.461606777        -2.369719681    
C          2.448191268       -0.1425542979        -1.378522864    
O          3.338156746        0.5373034909        -1.896989517    
N          1.289796608        0.3807264406       -0.9489339826    
H         0.6460224860       -0.2659006140       -0.5078989666    
CA        0.7920513741         1.756037104        -1.099313214    
HA       -0.2183215997         1.749331729       -0.6868933153    
CB         1.595274968         2.709841302       -0.2011984838    
HB         1.133291829         3.697770907       -0.2123087844    
HB         1.605749225         2.336171111        0.8232257312    
HB         2.620738041         2.796456853       -0.5613444132    
C         0.6549951451         2.248444755        -2.562882496    
O          1.641201477         2.485701694        -3.269242801    
N        -0.5927948615         2.448406328        -3.011691673    
H         -1.356881253         2.243257921        -2.381574848    
CH       -0.9331841479         2.932239124        -4.351072869    
HH        -2.017284976         3.000163598        -4.461419680    
HH       -0.5446824532         2.247386836        -5.107809727    
HH       -0.5002103907         3.921422336        -4.514318957    
    52
Energy=    -35.3093212065666    
HH        -1.145702810         3.957922350         1.588628009    
CH        -1.943378567         3.219408085         1.516650055    
HH        -2.835704808         3.596540139         2.014893780    
HH        -2.169249586         3.026209448        0.4688302811    
C         -1.508318351         1.933514366         2.183394094    
O        -0.4155913473         1.866881565         2.745588848    
N         -2.361693693        0.9127117529         2.119110145    
H         -3.234551564         1.055042506         1.633048078    
CA        -2.096471597       -0.4184024516         2.673655575    
HA        -1.678643192       -0.2940404052         3.674780461    
CB        -3.429895366        -1.164851329         2.816374734    
HB        -3.261053667        -2.137596565         3.280530883    
HB        -4.111891791       -0.5900671269         3.444799092    
HB        -3.882520650        -1.313725585         1.834628232    
C         -1.074010290        -1.220425382         1.837637746    
O        -0.9589897892        -1.029964305        0.6220200282    
N        -0.3540753192        -2.142518998         2.489455187    
H        -0.5212350887        -2.244618761         3.480675237    
CA        0.6797780606        -3.005196302         1.901243543    
HA         1.252820465        -3.419745714         2.732535406    
CB        0.1148816945E-01    -4.208231403         1.211277701    
HB       -0.6210164352        -3.875237955        0.3870505708    
HB       -0.6062687075        -4.746259474         1.931810473    
HB        0.7749552075        -4.889223475        0.8317702492    
C          1.717004558        -2.230392435         1.049514478    
O          2.536708123        -1.489929493         1.601325021    
N          1.687938384        -2.378947090       -0.2811179202    
H         0.9892867932        -2.995184393       -0.6709007390    
CA         2.602335183        -1.712261142        -1.216833571    
HA         3.609286601        -1.748605655       -0.7970982527    
CB         2.609658189        -2.524209186        -2.519007610    
HB         1.621468879        -2.500061060        -2.981120093    
HB         3.336243142        -2.099617535        -3.213048914    
HB         2.887648720        -3.558620473        -2.311481461    
C          2.277820060       -0.2196623238        -1.478448095    
O          3.102829658        0.4861675439        -2.068981573    
N          1.108188311        0.2612558682        -1.030209409    
H         0.5071181693       -0.3883005860       -0.5371144144    
CA        0.5583374905         1.607228125        -1.250607548    
HA       -0.4482610740         1.599050615       -0.8295522518    
CB         1.363604297         2.622232643       -0.4181704810    
HB        0.8514842791         3.584557119       -0.3989983933    
HB         1.463331727         2.265265517        0.6076997769    
HB         2.356810866         2.760055781       -0.8465673500    
C         0.3758262772         2.006460085        -2.740337608    
O         0.6382787697         1.224679043        -3.662941998    
N        -0.1296359327         3.225245739        -2.980270491    
H        -0.3352233938         3.810407012        -2.181601580    
CH       -0.3976670084         3.775329431        -4.310378765    
HH       -0.7982420294         4.787346696        -4.224336270    
HH        -1.125082116         3.152182704        -4.834898360    
HH        0.5241240950         3.810202270        -4.894904539    
