    52
Energy=    -38.7747288291033    
HH        -6.710675307        0.2611530470         1.637086380    
CH        -6.079838312        0.2536335700         2.525092415    
HH        -6.678045990       -0.1312317112E-01     3.395526338    
HH        -5.645234813         1.241914489         2.669940601    
C         -4.970014381       -0.7570433426         2.340537612    
O         -4.856221448        -1.701147212         3.122991412    
N         -4.153752008       -0.5602907350         1.306128740    
H         -4.318557023        0.2458309808        0.7220246391    
CA        -3.011111378        -1.419266581        0.9803362687    
HA        -3.336920656        -2.459336350         1.047381011    
CB        -2.600570106        -1.154111254       -0.4749262739    
HB        -1.791580347        -1.827604322       -0.7611149719    
HB        -2.260199177       -0.1232486369       -0.5861550945    
HB        -3.449898168        -1.326602810        -1.137731682    
C         -1.823782639        -1.241518334         1.954420835    
O         -1.648414437       -0.1838361309         2.570273117    
N        -0.9765085339        -2.271977932         2.063510038    
H         -1.177291500        -3.111349263         1.537301478    
CA        0.1969937985        -2.288392379         2.948164028    
HA       -0.9370968795E-01    -1.869553064         3.913344688    
CB        0.5930152244        -3.753798210         3.173629112    
HB        0.9022046066        -4.208575684         2.231091671    
HB       -0.2521497299        -4.308827983         3.583549150    
HB         1.421539540        -3.805755372         3.881409312    
C          1.392123110        -1.449534551         2.432923270    
O          2.308671107        -1.143477526         3.202750393    
N          1.388146995        -1.071383575         1.148864068    
H         0.6013740571        -1.354844538        0.5834130306    
CA         2.407506297       -0.2438399660        0.4947348629    
HA         2.898343911        0.3806752012         1.243816905    
CB         3.462722807        -1.171113296       -0.1269372629    
HB         4.253050704       -0.5778727304       -0.5888407634    
HB         3.002646218        -1.804477019       -0.8871056172    
HB         3.904933035        -1.801513976        0.6457942688    
C          1.793395618        0.7005575336       -0.5626601633    
O         0.6898425907        0.4610091469        -1.066900860    
N          2.517365495         1.768802511       -0.9125370876    
H          3.418551016         1.897526301       -0.4756983631    
CA         2.111791519         2.743476330        -1.930745349    
HA         1.064480586         3.001076139        -1.759803206    
CB         2.940374469         4.021175833        -1.738841845    
HB         2.613492673         4.783680016        -2.447212818    
HB         2.804926378         4.403330807       -0.7258950518    
HB         3.997786657         3.810536817        -1.907074118    
C          2.225069706         2.192574085        -3.372147562    
O          3.021206456         1.287456392        -3.652698305    
N          1.442145538         2.762742742        -4.298553112    
H         0.8257694009         3.505486438        -3.995579768    
CH         1.414238765         2.391473798        -5.714382267    
HH         1.134460174         1.341335126        -5.821773454    
HH         2.399100103         2.542103032        -6.161546843    
HH        0.6872073853         3.005865408        -6.249173805    
    52
Energy=    -38.0042031892892    
HH        -7.048784378       -0.2771704449         2.467157068    
CH        -6.093086209        0.2414823630         2.527904092    
HH        -5.982755365        0.7033088031         3.508000410    
HH        -6.056918191         1.015418054         1.761960897    
C         -4.975581524       -0.7594802894         2.326556460    
O         -4.859758970        -1.707325077         3.103853165    
N         -4.157144778       -0.5587611024         1.293591245    
H         -4.319258034        0.2486684473        0.7108376860    
CA        -3.014238971        -1.417354538        0.9671159769    
HA        -3.340875101        -2.457468514         1.029386850    
CB        -2.600152893        -1.147027577       -0.4862042202    
HB        -1.791022057        -1.820079611       -0.7730463760    
HB        -2.258681740       -0.1160359335       -0.5928033008    
HB        -3.448057270        -1.316402045        -1.151637111    
C         -1.828906167        -1.244207084         1.944481567    
O         -1.653645672       -0.1887046564         2.564083054    
N        -0.9831003802        -2.276022771         2.052149959    
H         -1.183705034        -3.113467326         1.522811602    
CA        0.1883657746        -2.296702217         2.939411516    
HA       -0.1040190235        -1.880579932         3.905259381    
CB        0.5820710672        -3.763306754         3.161107833    
HB        0.8928474009        -4.215464780         2.217832332    
HB       -0.2647073594        -4.318592458         3.567334891    
HB         1.408916306        -3.818540829         3.870601413    
C          1.385695750        -1.457686316         2.429566425    
O          2.300856886        -1.155204379         3.202449963    
N          1.385113161        -1.075453524         1.146710290    
H         0.5992956222        -1.356162438        0.5785646290    
CA         2.406981812       -0.2471024813        0.4975350974    
HA         2.896927881        0.3743743936         1.249721182    
CB         3.462417401        -1.173714710       -0.1247511490    
HB         4.254536443       -0.5800003489       -0.5829629392    
HB         3.003249521        -1.804039527       -0.8879886828    
HB         3.902086187        -1.807164754        0.6469362746    
C          1.796439893        0.7014776585       -0.5581820539    
O         0.6936694924        0.4650167977        -1.065583342    
N          2.522593231         1.769861607       -0.9030733782    
H          3.422992795         1.895986477       -0.4638620931    
CA         2.120550276         2.748310331        -1.919059268    
HA         1.073206181         3.006754582        -1.749601303    
CB         2.950394783         4.024291170        -1.721261484    
HB         2.626081702         4.789481368        -2.427914695    
HB         2.813220052         4.403396894       -0.7074016462    
HB         4.007896039         3.812785678        -1.887838688    
C          2.236277844         2.201851080        -3.361957533    
O          3.031826931         1.296567416        -3.643637353    
N          1.456160149         2.776013892        -4.288263786    
H         0.8401057532         3.518613044        -3.984283308    
CH         1.430886290         2.409294674        -5.705327695    
HH         1.149949809         1.359878258        -5.816683167    
HH         2.416931987         2.560031393        -6.149838131    
HH        0.7058549936         3.026357838        -6.239758555    
    52
Energy=    -38.7747288291081    
HH        -6.690037698       -0.2505580353E-01     3.371770817    
CH        -6.088270075        0.2468020245         2.505378382    
HH        -5.652388756         1.233223022         2.658810690    
HH        -6.715945767        0.2618168612         1.615229879    
C         -4.979636337       -0.7645734527         2.317526432    
O         -4.870328139        -1.714443667         3.093614821    
N         -4.159361353       -0.5619484722         1.287434375    
H         -4.320633821        0.2486221126        0.7085241668    
CA        -3.017135812        -1.420679770        0.9595483407    
HA        -3.345068074        -2.460599946         1.018014279    
CB        -2.600964387        -1.145904242       -0.4923264182    
HB        -1.792190655        -1.818826322       -0.7804622241    
HB        -2.258330730       -0.1149025741       -0.5949894021    
HB        -3.448252414        -1.312098584        -1.159338371    
C         -1.832942296        -1.252071803         1.939059342    
O         -1.657835477       -0.1991350504         2.563063730    
N        -0.9879319981        -2.284841417         2.043774989    
H         -1.188374386        -3.120066028         1.510880833    
CA        0.1823992070        -2.309727426         2.932423075    
HA       -0.1109585249        -1.897250089         3.899538521    
CB        0.5749580684        -3.777431167         3.148813918    
HB        0.8866560416        -4.226041345         2.204149572    
HB       -0.2726594207        -4.333814159         3.551776506    
HB         1.400875673        -3.835961894         3.859123122    
C          1.380866599        -1.469416941         2.427404470    
O          2.295238111        -1.170548894         3.202625449    
N          1.382122890        -1.082107010         1.146072565    
H         0.5968429693        -1.360076774        0.5758402406    
CA         2.405292870       -0.2517958388        0.5014692768    
HA         2.894609058        0.3664538223         1.256718698    
CB         3.461017632        -1.176551552       -0.1230833964    
HB         4.254051904       -0.5814867945       -0.5779481861    
HB         3.002485393        -1.803627098       -0.8893734458    
HB         3.899343874        -1.813262828        0.6466813600    
C          1.796645676        0.7012514034       -0.5513138562    
O         0.6944515126        0.4673393192        -1.061141822    
N          2.523788537         1.770630726       -0.8909970914    
H          3.423654188         1.894574709       -0.4500742729    
CA         2.123592603         2.753290039        -1.903642753    
HA         1.076152513         3.011591345        -1.734560625    
CB         2.953809703         4.028060035        -1.699697443    
HB         2.630822869         4.796199918        -2.403753117    
HB         2.815470561         4.403226091       -0.6845311824    
HB         4.011426612         3.816680393        -1.865699098    
C          2.240972836         2.212479106        -3.348534097    
O          3.036453009         1.307922051        -3.632731771    
N          1.462370213         2.790683971        -4.273599979    
H         0.8462749560         3.532380459        -3.967505966    
CH         1.438802397         2.429579021        -5.692134219    
HH         1.157500035         1.380750053        -5.808008849    
HH         2.425512515         2.581582319        -6.134734858    
HH        0.7147853969         3.049107943        -6.225085405    
