    52
Energy=    -38.6587951459711    
HH        -4.103356566        -2.266921192         7.394073332    
CH        -3.109023039        -2.588431051         7.086671755    
HH        -2.374704689        -1.847959717         7.401372839    
HH        -2.878070219        -3.549212547         7.545168085    
C         -3.070354269        -2.720273280         5.580539634    
O         -2.803435335        -3.804363557         5.060848204    
N         -3.337788133        -1.618426200         4.881020387    
H         -3.537776481       -0.7719430049         5.392456976    
CA        -3.325927612        -1.546388381         3.416662340    
HA        -3.864658354        -2.413274654         3.028588456    
CB        -4.094488520       -0.2903680471         2.983207675    
HB        -4.149298541       -0.2477461588         1.894502430    
HB        -5.108734885       -0.3183032558         3.384353828    
HB        -3.586333047        0.6037890728         3.347921395    
C         -1.899462703        -1.581942188         2.820679831    
O        -0.9208748568        -1.190145039         3.468596470    
N         -1.784859410        -2.026957877         1.564724845    
H         -2.624460295        -2.314154832         1.083151386    
CA       -0.5229490850        -2.082163030        0.8196973065    
HA        0.2396868313        -2.515601843         1.470061631    
CB       -0.7040333833        -3.026611997       -0.3765782766    
HB        -1.018280884        -4.011689532       -0.2825247234E-01
HB        -1.456781744        -2.627359836        -1.058334822    
HB        0.2404610842        -3.129678298       -0.9127273156    
C        -0.2087893181E-01   -0.6870325145        0.3804594974    
O        -0.8042086055        0.2571460104        0.2209325140    
N          1.291750269       -0.5641241835        0.1563393215    
H          1.875301916        -1.377758463        0.2862618344    
CA         1.937714515        0.6658325052       -0.3132514187    
HA         1.551015278         1.501165719        0.2742446604    
CB         3.443790125        0.5617697437       -0.3635583242E-01
HB         3.874118938       -0.2605836328       -0.6102633468    
HB         3.937738305         1.491012185       -0.3238692839    
HB         3.615140895        0.3886119625         1.027181217    
C          1.645727680        0.9696605455        -1.801195569    
O          1.359258614        0.6692387206E-01    -2.597200501    
N          1.745998404         2.246968214        -2.184207288    
H          2.002702744         2.933468964        -1.489873056    
CA         1.554924790         2.714333136        -3.561165376    
HA        0.6574703948         2.238922249        -3.962337458    
CB         1.303005632         4.228160867        -3.530722294    
HB         1.097083917         4.589088675        -4.539373700    
HB        0.4423950651         4.449050452        -2.897460242    
HB         2.180805164         4.746105934        -3.140849257    
C          2.732938493         2.343311047        -4.493170764    
O          3.871208255         2.154870935        -4.045206811    
N          2.463193595         2.265223552        -5.803675168    
H          1.511299289         2.444392312        -6.095580639    
CH         3.443149945         1.942037498        -6.842157124    
HH         2.963497796         1.939423299        -7.822965584    
HH         3.873717906        0.9554345890        -6.658221071    
HH         4.245644050         2.682710773        -6.844723181    
    52
Energy=    -32.5966185359272    
HH        -1.951397196        -1.273465378         7.451927476    
CH        -1.161925943        -1.058224695         6.732926016    
HH        -1.128680592        0.1339368619E-01     6.540365119    
HH       -0.2037596238        -1.386939001         7.133568703    
C         -1.451128186        -1.788341695         5.440430840    
O        -0.6469299147        -2.610979891         5.000987527    
N         -2.598790591        -1.489264399         4.833477457    
H         -3.192689843       -0.7955182294         5.262542745    
CA        -3.037837049        -2.074570660         3.562694388    
HA        -2.874872902        -3.153180953         3.612582644    
CB        -4.547719212        -1.840948449         3.413345504    
HB        -4.908445644        -2.321643354         2.502864304    
HB        -5.075982669        -2.267490990         4.267430332    
HB        -4.757240238       -0.7714925675         3.356893323    
C         -2.249148331        -1.540193429         2.343451783    
O         -1.725662116       -0.4218258949         2.375745268    
N         -2.197316748        -2.356225764         1.278980004    
H         -2.664134896        -3.244733206         1.392582042    
CA        -1.600348227        -2.137044206       -0.5172525936E-01
HA       -0.8228827396        -2.891184614       -0.1880474833    
CB        -2.691556633        -2.425302762        -1.095022663    
HB        -3.062087315        -3.444430034       -0.9757924884    
HB        -3.521429355        -1.726899780       -0.9753288234    
HB        -2.277432739        -2.319307460        -2.098771207    
C        -0.9357685790       -0.7572536661       -0.2933828030    
O         -1.596572430        0.2199218346       -0.6681904320    
N         0.3867579109       -0.6876539562       -0.1033153246    
H         0.8702723901        -1.521317856        0.1966826318    
CA         1.186949547        0.5234021369       -0.3101930024    
HA        0.6682614025         1.359603180        0.1632329110    
CB         2.532800940        0.3471131854        0.4063766313    
HB         3.089274910       -0.4788012904       -0.3971931563E-01
HB         3.122054988         1.260791957        0.3165037419    
HB         2.366058292        0.1406618673         1.464709832    
C          1.371732079        0.8772303063        -1.804135237    
O          1.308263320        0.8665164085E-02    -2.682983007    
N          1.629367314         2.157808304        -2.090502667    
H          1.687400716         2.814261302        -1.325676994    
CA         1.882256703         2.667745022        -3.442138470    
HA         1.132078313         2.244475897        -4.113296214    
CB         1.688388437         4.190373326        -3.431993491    
HB         1.811481457         4.585524018        -4.441327561    
HB        0.6848824759         4.434929963        -3.080377684    
HB         2.424825985         4.657287391        -2.775903928    
C          3.273134979         2.266073048        -3.988167553    
O          4.214112207         2.013710436        -3.224816907    
N          3.411074128         2.233659686        -5.320909920    
H          2.599852078         2.464148405        -5.879668565    
CH         4.647408150         1.891616855        -6.026386236    
HH         4.488202326         1.936008497        -7.105617847    
HH         4.965452626        0.8817641006        -5.758707542    
HH         5.439396337         2.594064410        -5.758202597    
    52
Energy=    -38.1634053150386    
HH        0.6494753711        -1.300542324         5.846504386    
CH        0.5807889322       -0.6848070205         4.950581834    
HH        0.2502266942E-01    0.2244056951         5.176419617    
HH         1.581716264       -0.4249192768         4.608061456    
C        -0.1420194031        -1.455599468         3.869491399    
O         0.4179768359        -1.696519496         2.799798976    
N         -1.388799612        -1.839505937         4.140836604    
H         -1.778556490        -1.594865132         5.039033670    
CA        -2.237830364        -2.567719546         3.194838098    
HA        -1.681309049        -3.438008425         2.840907953    
CB        -3.481643904        -3.080664298         3.932499573    
HB        -4.101353464        -3.660693226         3.247100707    
HB        -3.182815965        -3.720678851         4.764003105    
HB        -4.064480516        -2.240997536         4.314657548    
C         -2.607400448        -1.704953202         1.968066347    
O         -2.982632642       -0.5354201248         2.106587063    
N         -2.508867258        -2.293572351        0.7684871250    
H         -2.217474628        -3.261392173        0.7504361698    
CA        -2.762384860        -1.657076414       -0.5341454966    
HA        -2.392007183        -2.356496232        -1.285568162    
CB        -4.280693900        -1.549818258       -0.7567496308    
HB        -4.749620456        -2.521237993       -0.5945034281    
HB        -4.711123648       -0.8230010986       -0.6700856656E-01
HB        -4.483585681        -1.231910148        -1.780137466    
C         -1.976920930       -0.3433987741       -0.8009215347    
O         -2.404084605        0.4926699891        -1.605565645    
N        -0.8294791055       -0.1479814748       -0.1382190245    
H        -0.5233930079       -0.8649022927        0.5033124963    
CA        0.2596153269E-01     1.032900181       -0.2926643970    
HA       -0.6125679792         1.918681905       -0.3006858199    
CB        0.9429240001         1.137307773        0.9335038466    
HB         1.607620699        0.2732122770        0.9779767755    
HB         1.545047534         2.044611344        0.8695387743    
HB        0.3427286118         1.178472906         1.843631811    
C         0.8275052833         1.028215989        -1.614905057    
O          1.094977694       -0.2795033869E-01    -2.201218042    
N          1.235168209         2.216263538        -2.073919923    
H          1.000200718         3.039492256        -1.538807095    
CA         2.045596233         2.401703580        -3.282093793    
HA         1.622796770         1.782467794        -4.075919355    
CB         1.929629377         3.866530099        -3.725810115    
HB         2.475668123         4.014668248        -4.658519424    
HB        0.8818949314         4.123594833        -3.889009678    
HB         2.347977237         4.523562355        -2.961550444    
C          3.519371180         1.970572085        -3.092110745    
O          4.049334822         1.971060023        -1.973665185    
N          4.194042149         1.626590531        -4.197906271    
H          3.696670754         1.662693834        -5.078094902    
CH         5.595668621         1.204861643        -4.226054317    
HH         5.898541388        0.9771775625        -5.250009732    
HH         5.731619519        0.3121027169        -3.611966556    
HH         6.235119938         2.000812051        -3.838545532    
