    52
Energy=    -34.5658036375579    
HH        -6.257251064       -0.8786470582         3.363393393    
CH        -5.246016177       -0.5906824115         3.648606236    
HH        -5.289133203        0.2175215772         4.377762997    
HH        -4.732560234        -1.446312109         4.085539570    
C         -4.487214115       -0.1209363778         2.428455614    
O         -5.032652423       -0.1118023091         1.325385879    
N         -3.224694008        0.2596807076         2.624644244    
H         -2.865830592        0.2308588178         3.568520897    
CA        -2.345338423        0.7882107280         1.573334384    
HA        -2.930930808         1.458868086        0.9419330364    
CB        -1.250345300         1.623445188         2.251978726    
HB       -0.6264785192        0.9854865413         2.880157938    
HB       -0.6246295574         2.096457495         1.494006915    
HB        -1.704029251         2.403023996         2.865825453    
C         -1.741450950       -0.2896922221        0.6417325294    
O         -1.166939025        0.5337751639E-01   -0.3954945435    
N         -1.858438193        -1.577226751        0.9966646142    
H         -2.347165929        -1.769442560         1.858810746    
CA        -1.291160209        -2.729320548        0.2832614889    
HA        -1.346679148        -3.578978435        0.9661021322    
CB        -2.190785946        -3.093451812       -0.9115842445    
HB        -2.226953591        -2.272915923        -1.629543779    
HB        -3.203209432        -3.295136903       -0.5586655765    
HB        -1.808773664        -3.989500867        -1.403246347    
C         0.2169956647        -2.568242489       -0.3023053421E-01
O          1.045157832        -2.642797613        0.8827143198    
N         0.5856200351        -2.331129513        -1.295578720    
H        -0.1390273643        -2.278016555        -1.996952392    
CA         1.972779508        -2.126377406        -1.731003014    
HA         2.596238057        -2.893455140        -1.267987413    
CB         2.021366509        -2.334811363        -3.250256670    
HB         1.416729152        -1.577751607        -3.752235764    
HB         3.051883024        -2.254001056        -3.598786722    
HB         1.643228187        -3.326658668        -3.502428293    
C          2.567744517       -0.7534482538        -1.329811955    
O          3.793538524       -0.5964148355        -1.339103919    
N          1.717962784        0.2155593311       -0.9561039540    
H         0.7320863146       -0.1756965716E-01   -0.9573226639    
CA         2.052545509         1.602220804       -0.5991290886    
HA         1.103632857         2.126063675       -0.4714077798    
CB         2.733915021         1.607444764        0.7819996051    
HB         2.814789461         2.627338976         1.158995958    
HB         2.140856206         1.026399372         1.490013744    
HB         3.732988916         1.175810033        0.7125702865    
C          2.813950612         2.398274376        -1.694586544    
O          3.036748575         1.918874480        -2.813535279    
N          3.172262144         3.654151869        -1.389902353    
H          2.945037831         3.991319586       -0.4639419517    
CH         3.872667163         4.569875703        -2.292449879    
HH         3.272085741         4.748125634        -3.186932802    
HH         4.052684848         5.524136043        -1.793428993    
HH         4.832192437         4.142194946        -2.590759529    
    52
Energy=    -30.9008987695836    
HH        -7.214113468        -2.034027021         1.752338638    
CH        -6.309332023        -2.538620465         2.089404539    
HH        -6.565582185        -3.280315860         2.845010652    
HH        -5.830489109        -3.032077054         1.244514611    
C         -5.355441063        -1.528825671         2.685795231    
O         -5.661257269       -0.3375448427         2.727865932    
N         -4.194794415        -2.003648183         3.138324906    
H         -4.037508581        -2.999629243         3.076955480    
CA        -3.164372519        -1.185826852         3.792234645    
HA        -3.658592029       -0.5001815804         4.482951464    
CB        -2.278000293        -2.125795795         4.620667982    
HB        -1.755802357        -2.824307348         3.964850323    
HB        -1.542317287        -1.542604238         5.176266129    
HB        -2.889788201        -2.684321923         5.330682274    
C         -2.322230749       -0.3200889405         2.822616164    
O         -1.658503399        0.6178596736         3.272383848    
N         -2.371795200       -0.6203369387         1.515154518    
H         -2.972003921        -1.393922323         1.268653289    
CA        -1.614842983       -0.1545920049E-01    0.4069436620    
HA        -1.869446352       -0.5973548249       -0.4810786725    
CB        -2.136562051         1.403415102        0.1293277288    
HB        -1.910405412         2.061963827        0.9685779834    
HB        -3.216001322         1.378467636       -0.2646629433E-01
HB        -1.659968855         1.799875566       -0.7682129157    
C        -0.7254962064E-01   -0.9226449526E-01    0.5425980631    
O         0.5472056573        0.5793940518         1.372794397    
N         0.5651676175       -0.8843018436       -0.3289411837    
H         0.1123803830E-01    -1.415446642       -0.9869316090    
CA         2.019279703        -1.098321362       -0.3410307488    
HA         2.357809647        -1.223014180        0.6892095010    
CB         2.292725640        -2.412452841        -1.084303556    
HB         1.978191793        -2.327237861        -2.125699488    
HB         3.360010831        -2.636033876        -1.053525040    
HB         1.750090757        -3.229960653       -0.6072611158    
C          2.831803523        0.7285501962E-01   -0.9456113298    
O          4.038568710        0.1680234902       -0.6968633217    
N          2.176638585        0.9644326603        -1.706040816    
H          1.190066054        0.8021028819        -1.840594538    
CA         2.761505617         2.100523338        -2.437188723    
HA         1.957205900         2.536154367        -3.032876351    
CB         3.177384893         3.183101345        -1.423491210    
HB         3.427637440         4.108990513        -1.942152463    
HB         2.352832569         3.385846170       -0.7383298706    
HB         4.045362101         2.853474616       -0.8515815665    
C          3.868775604         1.721892074        -3.459251256    
O          4.167011808        0.5432814245        -3.690503700    
N          4.451691992         2.731935456        -4.121406934    
H          4.149586522         3.670715264        -3.897281690    
CH         5.495236054         2.579103677        -5.137054230    
HH         5.120985478         1.985504109        -5.973808980    
HH         5.802453931         3.558264374        -5.509763547    
HH         6.365234498         2.076745219        -4.708870811    
    52
Energy=    -34.8639237118508    
HH        -6.942636870        -2.012267083         1.374822226    
CH        -5.987327542        -2.466533141         1.114290006    
HH        -6.078318203        -3.551557202         1.148148967    
HH        -5.698311623        -2.157926729        0.1103711996    
C         -4.928298963        -2.024435240         2.098217976    
O         -5.217472143        -1.258755652         3.017195658    
N         -3.698434598        -2.499379835         1.900116154    
H         -3.558317859        -3.136078493         1.128407386    
CA        -2.552811018        -2.219777748         2.775722756    
HA        -2.887082645        -2.291532959         3.812325704    
CB        -1.506445581        -3.318510069         2.542758862    
HB        -1.139123964        -3.276773113         1.516054250    
HB       -0.6674735608        -3.178663202         3.226009655    
HB        -1.948807382        -4.298371815         2.728798486    
C         -1.941228068       -0.8098122148         2.594939960    
O         -1.176095174       -0.3599661892         3.453227765    
N         -2.264909141       -0.1162206701         1.492374584    
H         -2.910433055       -0.5549555950        0.8508632442    
CA        -1.778218084         1.226365795         1.134633435    
HA        -2.078888679         1.390035299        0.9831114248E-01
CB        -2.527988963         2.276294075         1.972373351    
HB        -2.237443184         2.198134105         3.020615908    
HB        -3.604172809         2.120750750         1.885476573    
HB        -2.289804945         3.277409634         1.610892189    
C        -0.2338392327         1.380053048         1.128149855    
O         0.3016404965         2.457880568         1.407859157    
N         0.4914662208        0.2995463866        0.8092909323    
H        -0.5765106696E-02   -0.5523582202        0.5925288725    
CA         1.958087071        0.2371112871        0.8570508029    
HA         2.294535454        0.7550972910         1.757019860    
CB         2.356230664        -1.238643703        0.9925388749    
HB         2.048438958        -1.793608395        0.1048704953    
HB         3.438589153        -1.318046732         1.102795940    
HB         1.881783105        -1.672730908         1.874050472    
C          2.667934210        0.9103499688       -0.3427827761    
O          3.864302640         1.206841048       -0.2531548870    
N          1.937827598         1.171335085        -1.438701333    
H         0.9665211192        0.9003055906        -1.407239776    
CA         2.424694552         1.726069741        -2.712598224    
HA         1.583641095         1.696948068        -3.407785527    
CB         2.761048080         3.215569519        -2.510570796    
HB         2.932437997         3.697273585        -3.473637885    
HB         1.928549304         3.720233130        -2.017959135    
HB         3.657190728         3.322235891        -1.898476202    
C          3.550636200        0.9034282888        -3.397821329    
O          3.941489045       -0.1766406862        -2.937170176    
N          4.044528797         1.392488235        -4.544698148    
H          3.669227139         2.271495925        -4.875306110    
CH         5.088838196        0.7550071489        -5.349011488    
HH         4.757195608       -0.2306706685        -5.682228969    
HH         5.312740497         1.365981028        -6.225726372    
HH         6.000074767        0.6399755718        -4.758233564    
