    52
Energy=    -37.9782296581969    
HH        -4.430741423        -1.234752215       -0.8753983979    
CH        -3.504582468        -1.794837790       -0.7524563521    
HH        -3.090773476        -2.035430373        -1.731090796    
HH        -3.705933358        -2.714432725       -0.2043761164    
C         -2.515905232       -0.9570289733        0.2214198167E-01
O         -1.430271449       -0.6623844189       -0.4746545023    
N         -2.872167390       -0.5925163166         1.253540692    
H         -3.780716524       -0.8832070845         1.586095239    
CA        -2.079334614        0.2946313321         2.115702600    
HA        -1.913996155         1.231173890         1.579901820    
CB        -2.913968638        0.6036198493         3.365474136    
HB        -3.865891975         1.051187600         3.075841620    
HB        -3.101294990       -0.3125258218         3.928040717    
HB        -2.375663450         1.307710744         4.001649902    
C        -0.6878493958       -0.2657026624         2.493452744    
O         0.2247453103        0.5052098903         2.803872649    
N        -0.4999938936        -1.590254082         2.425574104    
H         -1.298194831        -2.168057240         2.202896474    
CA        0.7918327130        -2.253673934         2.634036489    
HA         1.252537634        -1.843703870         3.534711023    
CB        0.5214367069        -3.744159952         2.876951449    
HB        0.6492591790E-01    -4.192924371         1.993152599    
HB       -0.1463751809        -3.866436803         3.731051002    
HB         1.460473194        -4.256781277         3.090496031    
C          1.788509300        -2.041752770         1.469147838    
O          3.002640113        -2.131792882         1.676382363    
N          1.292712339        -1.741848247        0.2602527483    
H         0.2864894176        -1.696423975        0.1632435474    
CA         2.095897128        -1.442783990       -0.9321708602    
HA         3.122734139        -1.775828725       -0.7725170956    
CB         1.525588553        -2.254336039        -2.102247731    
HB         2.131158328        -2.085501851        -2.993688398    
HB        0.4983816649        -1.949032973        -2.307635683    
HB         1.544227945        -3.317862939        -1.860017327    
C          2.153208918        0.6666592603E-01    -1.258200707    
O          3.194651673        0.5555796689        -1.708551371    
N          1.061605517        0.7984822522       -0.9885769151    
H         0.2501777808        0.2923714888       -0.6553128548    
CA        0.8658877746         2.231408495        -1.253851746    
HA       -0.1740904322         2.452173101        -1.006575058    
CB         1.722694964         3.042128205       -0.2637826775    
HB         2.780882900         2.939280024       -0.5063636254    
HB         1.551594870         2.685156538        0.7530444989    
HB         1.451752149         4.097387525       -0.3069906594    
C          1.031879416         2.653878867        -2.739552633    
O          1.255685159         1.827236618        -3.632838996    
N         0.8693191981         3.955528655        -3.018266249    
H         0.6719467278         4.576091089        -2.244474435    
CH        0.9625878270         4.546042981        -4.354801932    
HH        0.7988425163         5.624160373        -4.301037142    
HH        0.2089033294         4.107835462        -5.012451079    
HH         1.951834054         4.361033525        -4.778772928    
    52
Energy=    -33.6627076722449    
HH        -4.589736585        -1.887269962       -0.2582499540    
CH        -3.570712937        -2.272196877       -0.2554217931    
HH        -3.271631909        -2.520934704        -1.273036783    
HH        -3.520568003        -3.163553167        0.3687313001    
C         -2.642954336        -1.219026746        0.3008141407    
O         -1.714009579       -0.7900124047       -0.3813164200    
N         -2.869978813       -0.8188221994         1.551688489    
H         -3.651947595        -1.229213481         2.042225995    
CA        -2.130074691        0.2582781534         2.223371829    
HA        -2.232755354         1.165654005         1.626228184    
CB        -2.795882635        0.5082616641         3.582806294    
HB        -3.848534886        0.7577663275         3.441266836    
HB        -2.716150503       -0.3814566730         4.209664975    
HB        -2.303233024         1.342216557         4.084864512    
C        -0.6164117520       -0.1775626592E-01     2.382830272    
O         0.1788299939        0.9224844954         2.465406942    
N        -0.2053534526        -1.292333298         2.382689767    
H        -0.9119459140        -2.013792202         2.351620759    
CA         1.200634306        -1.709905411         2.417385668    
HA         1.731675066        -1.086464604         3.139075580    
CB         1.246728206        -3.157793788         2.922987254    
HB        0.7332176509        -3.817690379         2.221774197    
HB        0.7676501792        -3.225478233         3.900906548    
HB         2.284568855        -3.480089657         3.018692973    
C          1.928651782        -1.559623383         1.059588369    
O          3.162203206        -1.509263292         1.028640999    
N          1.185702495        -1.477223550       -0.5349862511E-01
H         0.1801130644        -1.527496858        0.4853885443E-01
CA         1.716358993        -1.342631828        -1.416821035    
HA         2.786837431        -1.554612075        -1.412261321    
CB         1.042511630        -2.408925674        -2.290460878    
HB         1.452403311        -2.367399255        -3.300564198    
HB       -0.3372144382E-01    -2.234766628        -2.336042670    
HB         1.229633890        -3.400525711        -1.875776985    
C          1.540540796        0.7466690270E-01    -2.007303681    
O          2.406420048        0.5234773567        -2.761471710    
N         0.4401536561        0.7563434543        -1.651817166    
H        -0.2199209634        0.2420155079        -1.080561517    
CA        0.3176319095E-01     2.136772952        -1.964684301    
HA       -0.9380689624         2.068366742        -2.460524768    
CB       -0.2111348264         2.873533192       -0.6377926389    
HB        0.7023645400         2.900827562       -0.4192366122E-01
HB       -0.9874847620         2.360260417       -0.6986402622E-01
HB       -0.5428938808         3.893609995       -0.8373390944    
C         0.9330888386         2.944389824        -2.933517740    
O         0.6051193918         3.074203529        -4.118651128    
N          2.049056319         3.503207178        -2.439976257    
H          2.251538498         3.344630796        -1.462622546    
CH         3.001144927         4.300867917        -3.213877756    
HH         3.811577866         4.646964648        -2.569449245    
HH         2.499681466         5.168927311        -3.646838269    
HH         3.424937513         3.698531618        -4.020134569    
    52
Energy=    -41.7229924013830    
HH        -4.554294854        -1.745157096        0.4703933403    
CH        -3.564053040        -2.184972482        0.3585652586    
HH        -3.478545159        -2.646827946       -0.6243781594    
HH        -3.411072502        -2.937645354         1.130972570    
C         -2.520510267        -1.103218079        0.5007709611    
O         -1.735888265       -0.8748570226       -0.4182226617    
N         -2.487024727       -0.4498115214         1.662081506    
H         -3.165664506       -0.7038253078         2.365941662    
CA        -1.599079860        0.6857121480         1.942822895    
HA        -1.814815750         1.476008623         1.222368653    
CB        -1.936684505         1.215424445         3.342494510    
HB        -2.988139620         1.503180445         3.387466648    
HB        -1.739544869        0.4483847438         4.093324699    
HB        -1.324406020         2.091828374         3.560198039    
C        -0.9699384755E-01    0.3450665074         1.818962553    
O         0.6999312445         1.198644358         1.421505222    
N         0.2882908654       -0.9085397204         2.089501117    
H        -0.4118103751        -1.554863468         2.425838966    
CA         1.663208137        -1.398357982         1.940728553    
HA         2.333349447       -0.7130413230         2.463076423    
CB         1.752459677        -2.767058667         2.627778719    
HB         1.095432451        -3.481917406         2.129564044    
HB         1.461269439        -2.676892707         3.675386247    
HB         2.778495560        -3.134708081         2.579997420    
C          2.135305089        -1.473173192        0.4695170095    
O          3.337994402        -1.383631019        0.2047149244    
N          1.204455891        -1.604389520       -0.4856735436    
H         0.2381755556        -1.683655585       -0.1959210604    
CA         1.474474124        -1.584963749        -1.927570784    
HA         2.517018962        -1.854921122        -2.104475950    
CB        0.6016606232        -2.659107185        -2.589386856    
HB        0.8184680269        -2.699505994        -3.657721166    
HB       -0.4551085128        -2.426171480        -2.450182991    
HB        0.8167131761        -3.634139291        -2.149800067    
C          1.249403512       -0.1931930539        -2.558131422    
O          1.979725804        0.1966059625        -3.474263953    
N         0.2677991682        0.5705394975        -2.061094396    
H        -0.3391638700        0.1637170217        -1.358820914    
CA       -0.6842849746E-01     1.910045767        -2.555369788    
HA       -0.5919732362E-01     1.889242935        -3.646710558    
CB        -1.498965069         2.231833504        -2.104612788    
HB        -1.547777128         2.279303602        -1.016316348    
HB        -2.184525327         1.462841123        -2.463878363    
HB        -1.804389988         3.194922193        -2.515825070    
C         0.9248036368         3.009135822        -2.109758519    
O          1.093870496         4.009652610        -2.815585569    
N          1.593055145         2.832891005       -0.9603931688    
H          1.365875746         2.013330548       -0.4090073299    
CH         2.583556724         3.760003554       -0.4134875726    
HH         2.949072689         3.390320633        0.5465252450    
HH         2.134816438         4.744209026       -0.2640787229    
HH         3.427402150         3.855700706        -1.099829465    
