    52
Energy=    -38.3243534668044    
HH        -4.612502534       -0.9919069609         6.454392425    
CH        -4.077887924       -0.3567837017         5.749047223    
HH        -4.741178812       -0.8853479822E-01     4.927635629    
HH        -3.740535255        0.5468528168         6.255479943    
C         -2.885796170        -1.110354841         5.204270502    
O         -1.748250912       -0.6702955967         5.367223399    
N         -3.148173026        -2.242522509         4.551228379    
H         -4.113175638        -2.533014992         4.482734263    
CA        -2.125031026        -3.127932301         3.978888704    
HA        -1.269260233        -3.147399878         4.656049545    
CB        -2.709373253        -4.546378056         3.927237611    
HB        -1.949258130        -5.245162269         3.575240699    
HB        -3.030809425        -4.852591907         4.923853602    
HB        -3.561995588        -4.576238322         3.246962359    
C         -1.591409283        -2.676757138         2.596845869    
O        -0.5952273805        -3.222986787         2.110506949    
N         -2.236973240        -1.695101683         1.955060489    
H         -3.037749573        -1.284606314         2.410744069    
CA        -1.848588748        -1.159676286        0.6463907137    
HA        -1.645564290        -2.001375469       -0.1904959112E-01
CB        -3.039644705       -0.3859179871        0.6442464120E-01
HB        -3.911551865        -1.038771678        0.4875229947E-03
HB        -3.275577295        0.4705906266        0.6981618573    
HB        -2.795269379       -0.2947712460E-01   -0.9372839305    
C        -0.5693578433       -0.2921608192        0.7001652875    
O        -0.2397745869        0.3018603793         1.733681925    
N         0.1347697050       -0.1973433647       -0.4329887865    
H        -0.2107566384       -0.6892185505        -1.245523966    
CA         1.362692711        0.5877832958       -0.6086623342    
HA         1.372904761         1.405350990        0.1148724484    
CB         2.566816809       -0.3223193611       -0.3223080541    
HB         2.590407751        -1.146951642        -1.036500408    
HB         3.492695424        0.2481983562       -0.4069407530    
HB         2.495792321       -0.7254094154        0.6889147211    
C          1.456123068         1.219836117        -2.015601888    
O         0.8079451193        0.7633122289        -2.965018510    
N          2.278941203         2.264619333        -2.154776452    
H          2.792411362         2.577381047        -1.343570457    
CA         2.527358918         2.958362559        -3.423037883    
HA         1.566997250         3.127918212        -3.914342702    
CB         3.138586787         4.332096931        -3.114361196    
HB         3.275893258         4.892247269        -4.040336181    
HB         2.472938053         4.896345171        -2.459390445    
HB         4.107072021         4.209969510        -2.626595812    
C          3.408422306         2.139568211        -4.396354317    
O          4.202459522         1.286245469        -3.980249328    
N          3.287287825         2.421130509        -5.701095786    
H          2.625746804         3.140006766        -5.963758126    
CH         4.041600458         1.767487279        -6.772078773    
HH         3.750351049         2.178239408        -7.740848642    
HH         3.842144892        0.6937908310        -6.770622612    
HH         5.112313678         1.927996237        -6.629203844    
    52
Energy=    -37.8966332205717    
HH        -4.988993386       -0.2256483479         5.853671924    
CH        -4.389402991        0.2520206780         5.079701962    
HH        -4.957626040        0.2877433335         4.151006181    
HH        -4.133393730         1.264490667         5.389868198    
C         -3.125625908       -0.5489675012         4.862878994    
O         -2.024818642       -0.2793540781E-01     5.038858153    
N         -3.285045752        -1.814002373         4.473800515    
H         -4.228834812        -2.159298544         4.372110506    
CA        -2.182867632        -2.757643480         4.243400673    
HA        -1.412388918        -2.576660839         4.994984354    
CB        -2.726358705        -4.175673197         4.466829968    
HB        -1.915258295        -4.899438319         4.375956720    
HB        -3.155944865        -4.255972186         5.466499909    
HB        -3.492335792        -4.405087941         3.724346968    
C         -1.500441516        -2.616303538         2.860414903    
O        -0.4416554309        -3.210557787         2.629931753    
N         -2.087965306        -1.845594886         1.936793939    
H         -2.946012474        -1.380510812         2.191453455    
CA        -1.560599784        -1.612548935        0.5885321367    
HA        -1.260359112        -2.575166154        0.1693488189    
CB        -2.692855138        -1.058615394       -0.2874018011    
HB        -3.534947291        -1.752433646       -0.2890976185    
HB        -3.022840470       -0.9113255393E-01    0.9464313641E-01
HB        -2.340305632       -0.9336365857        -1.312248181    
C        -0.3179733339       -0.6919098925        0.5725670677    
O        -0.1278398354        0.1436575939         1.464259819    
N         0.5100564115       -0.8269189322       -0.4691803634    
H         0.2683756187        -1.508471963        -1.174280789    
CA         1.728451985       -0.4026571373E-01   -0.6981205685    
HA         1.930000232        0.5763824398        0.1796328940    
CB         2.907942466        -1.010415480       -0.8532981915    
HB         2.761343435        -1.640494503        -1.732022320    
HB         3.836673902       -0.4500189961       -0.9691639341    
HB         2.987494735        -1.641699442        0.3300017374E-01
C          1.598512772        0.9180422771        -1.903231102    
O         0.7690394420        0.7136953406        -2.797764733    
N          2.436427951         1.959599096        -1.937552449    
H          3.102216556         2.059746252        -1.185132318    
CA         2.489254129         2.943040300        -3.024480969    
HA         1.466555848         3.235194600        -3.271753054    
CB         3.217596188         4.193897501        -2.513681031    
HB         3.215676192         4.964212594        -3.286119711    
HB         2.711145920         4.583724079        -1.629374077    
HB         4.250140066         3.948514910        -2.259838411    
C          3.136699702         2.383592063        -4.313620338    
O          3.946266050         1.448355417        -4.271716424    
N          2.798353983         2.979342899        -5.465533555    
H          2.139411985         3.745501541        -5.418543984    
CH         3.312473873         2.604940444        -6.784145270    
HH         2.874182993         3.244156407        -7.553146244    
HH         3.059989749         1.565547043        -7.004418249    
HH         4.398408910         2.717625677        -6.809627439    
    52
Energy=    -38.4725634812781    
HH        -5.150356452        0.5482276716         4.960005952    
CH        -4.507201558        0.8206966625         4.124051977    
HH        -5.000815878        0.5633310623         3.187708689    
HH        -4.309875734         1.891784850         4.149988764    
C         -3.204677085        0.6032878485E-01     4.228832749    
O         -2.138946624        0.6682942121         4.322586682    
N         -3.291222134        -1.269741386         4.205648271    
H         -4.212153752        -1.680043476         4.143554348    
CA        -2.143878869        -2.179227945         4.327143180    
HA        -1.442272895        -1.753568400         5.046752300    
CB        -2.656801087        -3.505015140         4.906188970    
HB        -1.817790088        -4.180415502         5.079037541    
HB        -3.161979584        -3.325050456         5.856316060    
HB        -3.353136151        -3.974232635         4.209346617    
C         -1.358179081        -2.394520847         3.010108521    
O        -0.2646824183        -2.969993948         3.029565076    
N         -1.895668235        -1.947926347         1.868244117    
H         -2.786774169        -1.478381480         1.921843655    
CA        -1.270087517        -2.074287024        0.5481354932    
HA       -0.9077163576        -3.098650561        0.4393696878    
CB        -2.345145105        -1.846433633       -0.5233461177    
HB        -3.162760429        -2.555856986       -0.3865978300    
HB        -2.733869056       -0.8291652021       -0.4533128006    
HB        -1.915597480        -1.994052646        -1.515244029    
C        -0.5977298037E-01    -1.131004249        0.3568161515    
O         0.3538415851E-01   -0.7015771249E-01    0.9857194172    
N         0.8569618383        -1.506232658       -0.5417235397    
H         0.7114631211        -2.374203688        -1.036541485    
CA         2.040825165       -0.7154707251       -0.8934212410    
HA         2.504199425       -0.3635945442        0.3065965174E-01
CB         3.049028836        -1.633952596        -1.597467368    
HB         2.627413783        -2.005526024        -2.532876047    
HB         3.963422367        -1.080590593        -1.816131512    
HB         3.296455208        -2.478226567       -0.9521477795    
C          1.702422321        0.5289969626        -1.746823758    
O         0.6887385590        0.5661568705        -2.455128968    
N          2.572076973         1.543783619        -1.700110084    
H          3.390301835         1.443159805        -1.117304790    
CA         2.442523957         2.779729320        -2.478952334    
HA         1.409742926         3.125873057        -2.401973540    
CB         3.338897541         3.851573218        -1.843553388    
HB         3.212538942         4.798738752        -2.369824108    
HB         3.064188518         3.993237232       -0.7971639370    
HB         4.385492839         3.548704123        -1.904454462    
C          2.755018262         2.581688816        -3.981331684    
O          3.496813764         1.669498100        -4.367971104    
N          2.206788966         3.460435390        -4.831938883    
H          1.621244489         4.186260279        -4.439856905    
CH         2.393953615         3.448418165        -6.283844957    
HH         1.835522322         4.267708761        -6.740982929    
HH         2.037734205         2.503948623        -6.700606718    
HH         3.452207085         3.564948434        -6.526991572    
