    52
Energy=    -34.6430818594112    
HH        -2.831987773         4.130900695         1.806310606    
CH        -2.775616250         3.172539633         1.291307750    
HH        -3.744474521         2.938000080        0.8518749324    
HH        -2.023378555         3.224831055        0.5056241778    
C         -2.397731619         2.087634012         2.275095226    
O         -2.189402328         2.370013017         3.455124431    
N         -2.306913365        0.8527409119         1.783501313    
H         -2.494697737        0.7259282527        0.7994357230    
CA        -1.936388262       -0.3437630761         2.548554811    
HA        -1.417861883       -0.4032572909E-01     3.460043439    
CB        -3.220687579        -1.081991113         2.953969468    
HB        -3.760898472        -1.408777127         2.063974254    
HB        -2.972725138        -1.954093255         3.560513777    
HB        -3.860135743       -0.4190984233         3.538634397    
C        -0.9752911063        -1.257816299         1.758954183    
O        -0.9154466789        -1.194785448        0.5265192887    
N        -0.2301443860        -2.113535060         2.469844354    
H        -0.3562412299        -2.115707339         3.472481262    
CA        0.8123911613        -2.998516453         1.931782921    
HA         1.389808569        -3.357976004         2.785406893    
CB        0.1646374905        -4.248285308         1.308790443    
HB       -0.4713896175        -3.972689304        0.4664626202    
HB       -0.4454846923        -4.755442638         2.057595871    
HB        0.9401120667        -4.936017440        0.9678731894    
C          1.838024999        -2.253238694         1.041919483    
O          2.663563689        -1.495454184         1.560700282    
N          1.787420896        -2.435120926       -0.2837924856    
H          1.087448692        -3.065300475       -0.6482445248    
CA         2.664767704        -1.757738968        -1.246798119    
HA         3.688936322        -1.801930850       -0.8718011295    
CB         2.611219787        -2.545070065        -2.562452111    
HB         1.601970146        -2.515966155        -2.976309784    
HB         3.302421756        -2.104060949        -3.281985862    
HB         2.901737949        -3.582117299        -2.387910359    
C          2.324794412       -0.2628318957        -1.469362837    
O          3.176864570        0.4888238993        -1.955362162    
N          1.110654044        0.1681867429        -1.093934525    
H         0.4915912194       -0.5187608713       -0.6799372111    
CA        0.5551709221         1.519175202        -1.263683427    
HA       -0.4935073270         1.462636228       -0.9670389056    
CB         1.236029547         2.462349154       -0.2543193738    
HB        0.7162003743         3.420227290       -0.2210835366    
HB         1.205071122         2.021443342        0.7433743349    
HB         2.275099207         2.633148988       -0.5382166818    
C         0.5380111010         2.042870086        -2.726551794    
O         0.8493989563         1.319280060        -3.680947150    
N         0.1135419215         3.301056581        -2.914991446    
H        -0.1410035011         3.834987859        -2.094911225    
CH        0.3941460464E-03     3.962543648        -4.216302952    
HH       -0.7013330227         3.420249668        -4.853536587    
HH       -0.3592625898         4.985337562        -4.087508560    
HH        0.9747209058         3.991507184        -4.708686684    
    52
Energy=    -33.2625223795850    
HH        -2.978015843         3.550174849       -0.1724314727    
CH        -3.086613854         2.467837470       -0.2334530523    
HH        -4.143750493         2.209574418       -0.2834901225    
HH        -2.582472964         2.100972635        -1.126711827    
C         -2.475694299         1.823973427        0.9908681685    
O         -2.002825382         2.525079865         1.884561137    
N         -2.470552027        0.4920569783         1.015665542    
H         -2.870114750        0.1027497132E-01    0.2225073493    
CA        -1.917530899       -0.3427464855         2.089945984    
HA        -1.308888436        0.2779178007         2.750431616    
CB        -3.081289033       -0.9084251823         2.916675655    
HB        -3.709765820        -1.544815315         2.291518166    
HB        -2.694555687        -1.497463958         3.749464377    
HB        -3.683439084       -0.9073500904E-01     3.315543526    
C         -1.001285547        -1.456820124         1.539274113    
O         -1.111041334        -1.834211121        0.3694689781    
N        -0.9861404905E-01    -1.972483728         2.385029135    
H        -0.1179396642        -1.615096686         3.330755040    
CA        0.9764158499        -2.938868123         2.090994172    
HA         1.566818961        -3.021270008         3.005495629    
CB        0.3793878411        -4.335628971         1.855888593    
HB       -0.2327855177        -4.345293226        0.9535500739    
HB       -0.2378525815        -4.621548576         2.708697642    
HB         1.184493527        -5.063361039         1.745027224    
C          1.982675047        -2.493194614         1.001421071    
O          3.142903872        -2.207872696         1.310922446    
N          1.544575651        -2.390319183       -0.2573567580    
H         0.5724172240        -2.623893628       -0.4248602642    
CA         2.313504882        -1.845682068        -1.383425639    
HA         3.361805848        -2.123252958        -1.259671171    
CB         1.799408616        -2.514216978        -2.665126680    
HB        0.7544774306        -2.248518436        -2.832983119    
HB         2.392500460        -2.180383615        -3.517563309    
HB         1.887586326        -3.598266786        -2.579681717    
C          2.260006272       -0.2997130407        -1.480765630    
O          3.038146510        0.2937373342        -2.234779427    
N          1.370061372        0.3409154136       -0.7054855509    
H         0.7803689592       -0.2451190395       -0.1358582396    
CA         1.071205421         1.781524330       -0.6851942830    
HA        0.2541620576         1.914598966        0.2538519500E-01
CB         2.269539739         2.544113740       -0.9220476148E-01
HB         1.993223175         3.580039108        0.1069540068    
HB         2.575774100         2.081790089        0.8473943126    
HB         3.108736322         2.532678296       -0.7882812125    
C         0.5455618268         2.364555195        -2.023626259    
O         0.4636233966         1.678101615        -3.049190816    
N         0.1357620648         3.640871104        -1.999490982    
H         0.2230341082         4.142860849        -1.125691322    
CH       -0.4274286539         4.362459750        -3.141967082    
HH        -1.339663276         3.869491294        -3.484553082    
HH       -0.6678896275         5.388391258        -2.856224609    
HH        0.2918322621         4.385209637        -3.963370767    
    52
Energy=    -34.6410318505646    
HH        -2.287052213         2.615442976       -0.9678296620    
CH        -2.939135092         1.824992810       -0.5997125506    
HH        -3.843903483         2.264742678       -0.1819636614    
HH        -3.203773168         1.158315189        -1.419376511    
C         -2.225016951         1.035306686        0.4731853342    
O         -1.058088660         1.297246109        0.7623113551    
N         -2.920608357        0.6607086408E-01     1.065754827    
H         -3.870373289       -0.9151534805E-01    0.7629135247    
CA        -2.380597742       -0.7986809665         2.118703145    
HA        -1.919380751       -0.1606662242         2.875539170    
CB        -3.540295390        -1.548095064         2.788270184    
HB        -4.036032030        -2.196124877         2.063561899    
HB        -3.159526956        -2.158541157         3.608458350    
HB        -4.262608362       -0.8344437636         3.187506727    
C         -1.296998199        -1.766267066         1.592321507    
O         -1.393935465        -2.274585629        0.4714844882    
N        -0.2741851827        -2.026278767         2.417869601    
H        -0.3012093031        -1.563123995         3.316245858    
CA        0.8833593884        -2.916809092         2.200741731    
HA         1.526848156        -2.782959780         3.072145692    
CB        0.4019031444        -4.375378356         2.249394399    
HB       -0.2213356429        -4.595837809         1.381979340    
HB       -0.1734808754        -4.547875848         3.160032622    
HB         1.261519692        -5.046882175         2.245873355    
C          1.807331738        -2.632625209        0.9849488965    
O          2.945550638        -3.111823350        0.9698340228    
N          1.366189125        -1.849222858       -0.6063601564E-02
H         0.3900867675        -1.585032299        0.3102703794E-01
CA         2.092406827        -1.540931622        -1.247723164    
HA         3.109110587        -1.929220770        -1.171853004    
CB         1.393838320        -2.292312344        -2.390879185    
HB        0.3811130062        -1.909222063        -2.525160288    
HB         1.951768692        -2.159520698        -3.318589875    
HB         1.348061438        -3.357867722        -2.161508582    
C          2.237874650       -0.2575269368E-01    -1.540998000    
O          2.742019455        0.3470574532        -2.606102720    
N          1.818277010        0.8368204269       -0.6026498959    
H          1.449967226        0.4356809220        0.2465674386    
CA         1.693726125         2.297903804       -0.7298619809    
HA         1.244245239         2.646594738        0.2015765879    
CB         3.093573604         2.935462788       -0.7846472094    
HB         3.014450291         4.018674840       -0.6873297361    
HB         3.705884100         2.558055213        0.3557887481E-01
HB         3.579778966         2.703971214        -1.732595573    
C         0.7334940528         2.781571799        -1.849490258    
O         0.2274430025         2.001362681        -2.665614685    
N         0.4518885406         4.092425898        -1.868197013    
H         0.8917987440         4.673312709        -1.166731212    
CH       -0.4380447980         4.745783765        -2.829713124    
HH        -1.438605695         4.312454883        -2.771160465    
HH       -0.5039611578         5.814031916        -2.614080640    
HH       -0.5535946416E-01     4.614314986        -3.843993370    
