    52
Energy=    -35.3093212065669    
HH        -1.057447936         3.974228205         1.608984941    
CH        -1.868460575         3.249523011         1.546282143    
HH        -2.747717227         3.640971163         2.056573823    
HH        -2.111109385         3.061928423        0.5011986360    
C         -1.446807509         1.955308906         2.205498516    
O        -0.3482038360         1.869151696         2.753405515    
N         -2.318219778        0.9492923576         2.150806229    
H         -3.194730684         1.107266985         1.676287647    
CA        -2.068586244       -0.3870585096         2.699967314    
HA        -1.635800741       -0.2714817904         3.695776666    
CB        -3.412586052        -1.110929396         2.858866943    
HB        -3.254369365        -2.087173434         3.319406629    
HB        -4.076509986       -0.5256543238         3.496888319    
HB        -3.880328032        -1.250454224         1.882849705    
C         -1.070830765        -1.204993510         1.849637935    
O        -0.9682931216        -1.014511794        0.6329069353    
N        -0.3583593788        -2.140286840         2.490761860    
H        -0.5144168444        -2.241161912         3.483915539    
CA        0.6529528210        -3.019470372         1.887983432    
HA         1.229535883        -3.445088926         2.711194095    
CB       -0.4460543782E-01    -4.209811157         1.205005408    
HB       -0.6819360846        -3.864735826        0.3895118552    
HB       -0.6620850284        -4.738431434         1.932703692    
HB        0.7021755207        -4.903076721        0.8146733880    
C          1.692147575        -2.261034695         1.024009006    
O          2.531414632        -1.535548386         1.566221697    
N          1.643366538        -2.406875782       -0.3063468468    
H         0.9293345106        -3.010483310       -0.6879347400    
CA         2.556831677        -1.754312107        -1.252865489    
HA         3.568355344        -1.808490139       -0.8462521195    
CB         2.533489815        -2.564115827        -2.556185698    
HB         1.539968661        -2.522381698        -3.005433040    
HB         3.258181139        -2.150812256        -3.258965709    
HB         2.796463455        -3.603451912        -2.353755689    
C          2.254456021       -0.2559740925        -1.508121485    
O          3.083680821        0.4366798283        -2.108274133    
N          1.099080570        0.2440493306        -1.044092607    
H         0.4934445743       -0.3959916442       -0.5441884508    
CA        0.5694535224         1.599550999        -1.255428826    
HA       -0.4316148929         1.607819135       -0.8213910779    
CB         1.402592694         2.599321086       -0.4320339187    
HB        0.9072423971         3.570193071       -0.4048574602    
HB         1.509464491         2.239014316        0.5919476855    
HB         2.392387401         2.720919821       -0.8730538439    
C         0.3745452036         2.004291837        -2.742098843    
O         0.6116923617         1.219679731        -3.669140824    
N        -0.1131243213         3.231901797        -2.973724668    
H        -0.2983721790         3.819159309        -2.171625053    
CH       -0.3888995362         3.788664861        -4.299463583    
HH       -0.7710197874         4.807212495        -4.206795193    
HH        -1.133546734         3.178860940        -4.815414272    
HH        0.5257241337         3.808802515        -4.895821987    
    52
Energy=    -34.5568594561760    
HH        -2.031349863         4.247702337         1.699230391    
CH        -2.377078976         3.282177216         1.331586983    
HH        -3.466085855         3.271242960         1.304672000    
HH        -1.988899282         3.114339840        0.3283658523    
C         -1.891675508         2.183791815         2.251326890    
O         -1.243831510         2.466275608         3.259103554    
N         -2.203289404        0.9376103909         1.896963536    
H         -2.727249070        0.8133365482         1.042981307    
CA        -1.839212004       -0.2766186210         2.637859025    
HA        -1.256179033        0.2576493268E-03     3.518010956    
CB        -3.127713806       -0.9497787123         3.131278741    
HB        -2.882394523        -1.827863689         3.730263777    
HB        -3.696806696       -0.2524302602         3.747829962    
HB        -3.737953709        -1.258141826         2.280855825    
C        -0.9644270564        -1.233590339         1.800149570    
O        -0.9751819197        -1.183064588        0.5658034646    
N        -0.2143128578        -2.114487752         2.474376647    
H        -0.2821227424        -2.104786591         3.482578771    
CA        0.7627408296        -3.041184643         1.886022481    
HA         1.369212691        -3.421734299         2.709842211    
CB        0.3542847555E-01    -4.265749631         1.302020769    
HB       -0.6321383422        -3.967187282        0.4926015053    
HB       -0.5543252867        -4.747407370         2.083274262    
HB        0.7649315291        -4.983737588        0.9240381975    
C          1.769060848        -2.337746750        0.9420206954    
O          2.651359090        -1.615083328         1.415484382    
N          1.640014054        -2.514765724       -0.3790152539    
H         0.8972219510        -3.116060298       -0.7055603542    
CA         2.487497435        -1.865671066        -1.387233089    
HA         3.529003477        -1.954530929        -1.072796660    
CB         2.325187409        -2.638151095        -2.702722749    
HB         1.295494765        -2.564811738        -3.056375655    
HB         2.990496077        -2.218602887        -3.458584957    
HB         2.583085800        -3.687564919        -2.552557908    
C          2.195553630       -0.3565018827        -1.579335225    
O          3.051442610        0.3679041233        -2.098800514    
N          1.018628457        0.1155108038        -1.140501553    
H         0.3942714619       -0.5525680381       -0.7042113509    
CA        0.5093596687         1.489164875        -1.263295911    
HA       -0.5265730320         1.466005782       -0.9213495562    
CB         1.270213257         2.386594854       -0.2694488611    
HB        0.7899883995         3.362734304       -0.1961539882    
HB         1.266169427         1.928487508        0.7209439796    
HB         2.301631460         2.522744263       -0.5967023392    
C         0.4479945974         2.039376128        -2.715165022    
O         0.6764556126         1.318273219        -3.694561889    
N         0.7777397226E-01     3.319892990        -2.863444453    
H        -0.1090648222         3.851585052        -2.023965319    
CH       -0.6553525970E-01     4.008606898        -4.147530122    
HH       -0.3674425723         5.045317374        -3.985873024    
HH       -0.8233513195         3.512278315        -4.757401227    
HH        0.8839777640         3.998610793        -4.686898751    
    52
Energy=    -34.6430818594110    
HH        -2.488301059         4.267843826         1.985224749    
CH        -2.515528175         3.310610410         1.465778419    
HH        -3.520740824         3.131006891         1.086191196    
HH        -1.811063548         3.326476683        0.6354938435    
C         -2.137434168         2.201653446         2.422289886    
O         -1.842288651         2.466062995         3.587873275    
N         -2.143868531        0.9663116207         1.923528742    
H         -2.398120981        0.8550822738        0.9525945404    
CA        -1.792539527       -0.2525110578         2.661943752    
HA        -1.203530456        0.1764018173E-01     3.540489125    
CB        -3.087700009       -0.9225829048         3.143949412    
HB        -2.850661331        -1.810022870         3.732342553    
HB        -3.653334191       -0.2293201386         3.768127637    
HB        -3.698269704        -1.214994593         2.288140762    
C        -0.9324737984        -1.212809362         1.812953575    
O        -0.9448483924        -1.146494529        0.5793007770    
N        -0.1926399264        -2.111255094         2.474999031    
H        -0.2570659708        -2.111997490         3.483480381    
CA        0.7655613885        -3.048262785         1.872131399    
HA         1.373831861        -3.442899704         2.687952858    
CB        0.1417760053E-01    -4.257933975         1.287542092    
HB       -0.6563556985        -3.943938024        0.4864232274    
HB       -0.5755322700        -4.735463041         2.071363160    
HB        0.7289570307        -4.984639649        0.8982477234    
C          1.773652233        -2.354609845        0.9224898415    
O          2.669210866        -1.645227565         1.391143790    
N          1.632229041        -2.526393560       -0.3979812766    
H         0.8781716122        -3.115955204       -0.7200481998    
CA         2.484376001        -1.892149780        -1.411659702    
HA         3.525678581        -1.993504817        -1.100350976    
CB         2.307853568        -2.668388164        -2.723146207    
HB         1.278224665        -2.582695077        -3.074189041    
HB         2.976582063        -2.261438374        -3.482864637    
HB         2.551934223        -3.720510788        -2.568889245    
C          2.212856190       -0.3799161592        -1.609878058    
O          3.073027867        0.3272994725        -2.145747509    
N          1.049091086        0.1139191486        -1.159724982    
H         0.4202441033       -0.5408603145       -0.7098973382    
CA        0.5582225331         1.493781900        -1.292287674    
HA       -0.4718535783         1.492276834       -0.9319244648    
CB         1.349648505         2.393453549       -0.3247148323    
HB        0.8854541424         3.377773492       -0.2576673733    
HB         1.355985875         1.949519031        0.6720956207    
HB         2.377114717         2.509501545       -0.6715318936    
C         0.4799393372         2.025470393        -2.750270447    
O         0.6926947675         1.291267956        -3.723459704    
N         0.1134779349         3.305703885        -2.909722910    
H        -0.6111464091E-01     3.848181118        -2.074472387    
CH       -0.4312359086E-01     3.979291761        -4.200278815    
HH       -0.3383180269         5.019284316        -4.047556581    
HH       -0.8108669838         3.479042331        -4.794325175    
HH        0.8993765421         3.958319603        -4.751501941    
