    52
Energy=    -35.9944802327758    
HH        -5.165642507         3.027791513         4.589521978    
CH        -4.941298369         2.439064486         3.700844507    
HH        -5.863504377         2.227400304         3.161110198    
HH        -4.262997979         2.996132818         3.055745974    
C         -4.288950160         1.135483548         4.104393486    
O         -4.090663733        0.8874398725         5.294179463    
N         -3.957875006        0.3093776146         3.112919894    
H         -4.149875979        0.6117905020         2.168628243    
CA        -3.305876141       -0.9953349757         3.275747937    
HA        -2.745054544       -0.9986413490         4.212454858    
CB        -4.393250781        -2.077188468         3.363598334    
HB        -4.968751912        -2.104617444         2.436963655    
HB        -3.934445182        -3.053253258         3.526691469    
HB        -5.064214883        -1.862777043         4.196595632    
C         -2.303061714        -1.295874352         2.138648279    
O         -2.407366196       -0.7362392037         1.040343790    
N         -1.361155622        -2.212830190         2.403924157    
H         -1.381476498        -2.633402489         3.322190286    
CA       -0.2496035330        -2.614511820         1.525443619    
HA        0.3747308744        -3.296820644         2.105354786    
CB       -0.8115858216        -3.440864691        0.3534423801    
HB        -1.372249795        -2.799962740       -0.3277810375    
HB        -1.470142557        -4.223375093        0.7333549859    
HB        0.1262801570E-02    -3.914426316       -0.1978612642    
C         0.6960873323        -1.460918376         1.094273341    
O         0.5442093197       -0.3038585869         1.504368647    
N          1.719169580        -1.787555798        0.2960636458    
H          1.802032833        -2.748788226       -0.5768843594E-03
CA         2.703915838       -0.8320851762       -0.2221142518    
HA         3.027282148       -0.1924322243        0.6017368396    
CB         3.931103312        -1.613333192       -0.7112286406    
HB         3.653837953        -2.264685056        -1.541696187    
HB         4.701486885       -0.9182313015        -1.048124824    
HB         4.335771996        -2.217411240        0.1022657562    
C          2.129401377        0.8575185424E-01    -1.326012968    
O          1.183233539       -0.2774070338        -2.035500370    
N          2.725292857         1.271461885        -1.491408874    
H          3.505778669         1.499720134       -0.8930843048    
CA         2.351385958         2.247916616        -2.519812147    
HA         1.262921791         2.334647378        -2.529514526    
CB         2.921585393         3.616355794        -2.121921315    
HB         2.604353321         4.372482386        -2.841425497    
HB         2.555535879         3.898374037        -1.133519903    
HB         4.012005632         3.577350388        -2.105733075    
C          2.796316523         1.827670409        -3.940876239    
O          3.758773861         1.069057520        -4.114178123    
N          2.107344898         2.347068448        -4.966462032    
H          1.340751843         2.969307022        -4.746093578    
CH         2.382983493         2.082136986        -6.379627264    
HH         2.291624254         1.013681909        -6.586174915    
HH         1.673662233         2.624049467        -7.008317930    
HH         3.395201196         2.405313192        -6.631759992    
    52
Energy=    -31.6718734575549    
HH        -5.060366382         2.831834482         4.600020108    
CH        -4.299257559         2.569634680         3.866097670    
HH        -4.556914531         3.005614315         2.901678924    
HH        -3.332325374         2.952173263         4.190553401    
C         -4.220625069         1.065470160         3.728575558    
O         -4.958947248        0.3451517551         4.401190938    
N         -3.325861500        0.5983346329         2.858874314    
H         -2.756915457         1.272050705         2.366300611    
CA        -3.073573340       -0.8201320086         2.577779528    
HA        -3.361924819        -1.411940925         3.448816507    
CB        -3.955958048        -1.246848133         1.394248638    
HB        -3.687724246       -0.6767518724        0.5033090758    
HB        -3.818803080        -2.309866725         1.191413277    
HB        -5.005996012        -1.069218840         1.630847855    
C         -1.580542545        -1.107965961         2.298658762    
O        -0.8273142771       -0.1982723164         1.939166046    
N         -1.187616511        -2.380839456         2.461583486    
H         -1.908453072        -3.017638183         2.770723746    
CA        0.1259079592        -3.008203996         2.221624732    
HA        0.4395348801        -3.450311503         3.168988301    
CB       -0.7545189612E-01    -4.175070805         1.240797729    
HB       -0.4675225437        -3.812406115        0.2894059122    
HB       -0.7802133237        -4.893842516         1.661484322    
HB        0.8762235376        -4.680474607         1.068799228    
C          1.289120755        -2.078206019         1.793990419    
O          2.145053602        -1.740581610         2.619093062    
N          1.329992723        -1.677763681        0.5169933122    
H         0.5821708527        -1.979850634       -0.9047827922E-01
CA         2.320132335       -0.7618107816       -0.5806005373E-01
HA         2.712498357       -0.1182913140        0.7317964417    
CB         3.482066629        -1.589442299       -0.6275830438    
HB         3.121111166        -2.241382768        -1.424649721    
HB         4.247894897       -0.9253174364        -1.030518645    
HB         3.926331981        -2.198460642        0.1609056231    
C          1.701772637        0.1560651497        -1.135779807    
O         0.6822021192       -0.1784121942        -1.751396041    
N          2.334751112         1.307826808        -1.382447900    
H          3.173247685         1.512164047       -0.8584646581    
CA         1.919999726         2.276309601        -2.402763279    
HA        0.8394494466         2.413381773        -2.325172918    
CB         2.581691262         3.625631300        -2.090490293    
HB         2.239432925         4.378683589        -2.801701393    
HB         2.312355741         3.947399767        -1.083325393    
HB         3.666837301         3.536268522        -2.163080891    
C          2.225522347         1.802692128        -3.843710847    
O          3.135806745        0.9966856222        -4.075108047    
N          1.476659911         2.329060371        -4.822707141    
H         0.7593072355         2.990971421        -4.556861624    
CH         1.621145368         2.018573905        -6.246059089    
HH         1.465939549        0.9509045282        -6.415168029    
HH        0.8862104401         2.577669655        -6.828587488    
HH         2.621935911         2.288750961        -6.589602944    
    52
Energy=    -38.6822893616454    
HH        -6.164775470         1.956067798         3.836579077    
CH        -5.093199091         1.959244443         3.640622473    
HH        -4.841238521         2.806767585         3.004385570    
HH        -4.550389220         2.037985210         4.581754480    
C         -4.698983421        0.6767487348         2.942490110    
O         -5.552156459       -0.1734549894         2.686386099    
N         -3.408546877        0.5425969575         2.638973474    
H         -2.785898153         1.292260986         2.904683281    
CA        -2.808766733       -0.6199371031         1.973416571    
HA        -3.428703351        -1.498617247         2.162196334    
CB        -2.792106354       -0.3602615821        0.4590221563    
HB        -2.171988623        0.5093229564        0.2354162389    
HB        -2.389944394        -1.228678685       -0.6429786867E-01
HB        -3.806811639       -0.1774663586        0.1026340074    
C         -1.393282523       -0.9340258963         2.506328661    
O        -0.7174010647       -0.6957677927E-01     3.075406118    
N        -0.9284638635        -2.171107482         2.294675810    
H         -1.533669066        -2.833998272         1.829564079    
CA        0.3845608097        -2.651153624         2.748460765    
HA        0.5453170584        -2.300768464         3.769704870    
CB        0.3361912777        -4.184634282         2.781740986    
HB        0.1873807551        -4.577610083         1.774657205    
HB       -0.4801463734        -4.517307670         3.424629447    
HB         1.274784160        -4.573320067         3.179327548    
C          1.575541356        -2.138500845         1.902209726    
O          2.726606099        -2.221237249         2.343325599    
N          1.312281459        -1.606949409        0.7022098120    
H         0.3459726386        -1.568533970        0.4126017649    
CA         2.301205960        -1.036706527       -0.2191311535    
HA         3.166070374       -0.6913202097        0.3507624225    
CB         2.766347765        -2.141636903        -1.179640717    
HB         1.923036565        -2.503006055        -1.770329694    
HB         3.530955937        -1.751455212        -1.852723779    
HB         3.189926053        -2.972244395       -0.6133022476    
C          1.740157429        0.1799371105       -0.9885960116    
O         0.5213983030        0.3465346126        -1.116235911    
N          2.631708067         1.024047167        -1.518054136    
H          3.612853924        0.8213420711        -1.392381043    
CA         2.279552629         2.202490262        -2.317112834    
HA         1.471446413         2.731952632        -1.808120937    
CB         3.493070709         3.141295917        -2.360822191    
HB         3.235053475         4.054182119        -2.899450088    
HB         3.794342884         3.406721468        -1.346310861    
HB         4.326192504         2.652928992        -2.868953070    
C          1.777116276         1.841492001        -3.735280050    
O          2.118428972        0.7882499621        -4.288423840    
N         0.9823918203         2.736045847        -4.338998411    
H         0.7570537799         3.579678311        -3.828227393    
CH        0.4184265470         2.583151119        -5.681294082    
HH       -0.2031844021         1.686455977        -5.727536240    
HH       -0.1958167976         3.450483673        -5.931280782    
HH         1.220100697         2.495525248        -6.417661345    
