    52
Energy=    -36.7091838691026    
HH        -5.621458804        0.1853739646        0.3777667949    
CH        -4.683437720       -0.5391787315E-01   -0.1216175328    
HH        -4.771780741        -1.019956808       -0.6171252023    
HH        -4.455465024        0.7147436458       -0.8591155434    
C         -3.574636116       -0.1188478546        0.9036553230    
O         -2.605012624        0.6349519707        0.8169281137    
N         -3.708020210        -1.023623255         1.872743294    
H         -4.529257536        -1.610284984         1.868459662    
CA        -2.713225701        -1.235320779         2.927001116    
HA        -2.507940683       -0.2717492323         3.397898897    
CB        -3.309343743        -2.157992902         3.998363528    
HB        -3.543370833        -3.132650154         3.567010063    
HB        -2.590870861        -2.291100748         4.808501260    
HB        -4.219942514        -1.715361572         4.404806146    
C         -1.385787140        -1.785764501         2.360945993    
O         -1.379837752        -2.744420355         1.581043786    
N        -0.2626153564        -1.175321258         2.762438780    
H        -0.3600365775       -0.4146486027         3.421293266    
CA         1.104299139        -1.489416445         2.316261795    
HA         1.732872041       -0.6767953844         2.684583121    
CB         1.587245508        -2.763943447         3.029705385    
HB         1.031553607        -3.630210042         2.668978845    
HB         1.440472503        -2.665475497         4.106128139    
HB         2.649568239        -2.917533277         2.836008733    
C          1.323770239        -1.489208685        0.7782551026    
O          2.258611036        -2.123204417        0.2775271134    
N         0.4812025696       -0.7761382852        0.1695634449E-01
H        -0.2757157001       -0.2871647194        0.4753778521    
CA        0.5197584757       -0.7441672764        -1.451697727    
HA        0.7433131309        -1.750072406        -1.811837193    
CB       -0.8825504833       -0.3744528081        -1.953120804    
HB        -1.141445675        0.6360965533        -1.633756843    
HB       -0.9070147536       -0.4190345726        -3.042789211    
HB        -1.616197415        -1.078615442        -1.557878762    
C          1.600154025        0.1942831910        -2.040236861    
O          1.932464826        0.7883242879E-01    -3.223827488    
N          2.149389700         1.112025406        -1.229603322    
H          1.822307187         1.132765654       -0.2743956983    
CA         3.191678594         2.084651745        -1.596575417    
HA         3.254370885         2.786533033       -0.7632305187    
CB         4.551737551         1.368584493        -1.658948829    
HB         5.350940738         2.101749026        -1.774136108    
HB         4.720349007        0.8106236861       -0.7369352544    
HB         4.575542566        0.6806294076        -2.504766885    
C          2.863311232         2.968418270        -2.830657566    
O          3.760826864         3.378793518        -3.576549109    
N          1.574140541         3.265083141        -3.054900235    
H         0.8965623105         2.898574444        -2.400564250    
CH         1.077697683         4.071138204        -4.171366730    
HH       -0.8989265915E-02     4.160518814        -4.115697018    
HH         1.515691728         5.070888612        -4.136926971    
HH         1.344121603         3.601134176        -5.120381373    
    52
Energy=    -35.9471281427292    
HH        -5.158399961        0.9134513289       -0.1063158762    
CH        -4.721706999       -0.8409079101E-01   -0.1214857643    
HH        -5.494241182       -0.8165674825        0.1100961303    
HH        -4.312686346       -0.2951198477        -1.108516047    
C         -3.605460806       -0.1481256273        0.8977900395    
O         -2.641622183        0.6108547831        0.7958168912    
N         -3.718990951        -1.047756590         1.875237802    
H         -4.534604783        -1.641809855         1.887339346    
CA        -2.710454186        -1.241457641         2.920093248    
HA        -2.506671385       -0.2713367717         3.378050625    
CB        -3.288054209        -2.156016941         4.008426321    
HB        -3.519321744        -3.137304602         3.590822246    
HB        -2.559941669        -2.274505053         4.812214153    
HB        -4.197503958        -1.715474805         4.419703034    
C         -1.384699687        -1.788928143         2.347071753    
O         -1.380802159        -2.742992997         1.561552861    
N        -0.2602725024        -1.182545585         2.751266165    
H        -0.3562372512       -0.4258321304         3.414893574    
CA         1.106608681        -1.498864164         2.306358929    
HA         1.736741094       -0.6895317213         2.679227644    
CB         1.584372707        -2.777494844         3.015931236    
HB         1.027003401        -3.640760792         2.650621311    
HB         1.435501054        -2.682781712         4.092404256    
HB         2.646680129        -2.933382559         2.823994181    
C          1.330009985        -1.493421649        0.7689754674    
O          2.266854661        -2.124792522        0.2686787729    
N         0.4890437141       -0.7783705633        0.7883987565E-02
H        -0.2698536508       -0.2923064750        0.4659717792    
CA        0.5320409667       -0.7403473528        -1.460478158    
HA        0.7617880785        -1.743628236        -1.824021903    
CB       -0.8707266176       -0.3760342755        -1.964389676    
HB        -1.136630953        0.6311895213        -1.640255835    
HB       -0.8915895383       -0.4149219324        -3.054355370    
HB        -1.601172956        -1.086793968        -1.575141748    
C          1.609563010        0.2057645747        -2.042003189    
O          1.943969910        0.9852580229E-01    -3.225776121    
N          2.154125071         1.120903704        -1.225295337    
H          1.825797175         1.134727128       -0.2703928928    
CA         3.193119814         2.099699623        -1.585171857    
HA         3.251923370         2.796975179       -0.7476871752    
CB         4.556050153         1.389312013        -1.649780132    
HB         5.352542321         2.126241559        -1.759596351    
HB         4.725567466        0.8266807242       -0.7307761266    
HB         4.583712383        0.7063706118        -2.499534957    
C          2.863032047         2.989337900        -2.814568871    
O          3.759987096         3.407548072        -3.556774721    
N          1.573030613         3.282272650        -3.038933448    
H         0.8959633508         2.909311484        -2.387721077    
CH         1.075022162         4.092876508        -4.151403164    
HH       -0.1208345481E-01     4.177693012        -4.096776478    
HH         1.509056418         5.094109876        -4.110516205    
HH         1.344622602         3.629451373        -5.102753270    
    52
Energy=    -36.7091838691030    
HH        -4.458526149        0.6952537708       -0.8592403068    
CH        -4.682934279       -0.7942212914E-01   -0.1269605596    
HH        -5.622799991        0.1513693604        0.3729560082    
HH        -4.765334474        -1.042721905       -0.6287845509    
C         -3.574842611       -0.1447449507        0.8990546023    
O         -2.609382456        0.6150306821        0.8182265123    
N         -3.704137922        -1.056493220         1.862142940    
H         -4.522059946        -1.647716227         1.853198650    
CA        -2.709256430        -1.269405329         2.916074034    
HA        -2.509875822       -0.3077569827         3.393396378    
CB        -3.301283139        -2.202307306         3.980825757    
HB        -3.529383686        -3.175457657         3.542944738    
HB        -2.582908897        -2.336607519         4.790854166    
HB        -4.214773806        -1.767428217         4.389143272    
C         -1.378162352        -1.808722340         2.347896654    
O         -1.366021130        -2.762273967         1.561833181    
N        -0.2588536827        -1.194588876         2.754517423    
H        -0.3612277394       -0.4387451140         3.418160984    
CA         1.110263766        -1.498118395         2.307782431    
HA         1.733879497       -0.6843767086         2.682008793    
CB         1.599630091        -2.774494259         3.013504246    
HB         1.049187909        -3.641519440         2.646604154    
HB         1.451196327        -2.683804125         4.090382562    
HB         2.662998403        -2.920864322         2.819954646    
C          1.331315564        -1.486747985        0.7700441599    
O          2.270220360        -2.112239842        0.2662345358    
N         0.4855389247       -0.7735176571        0.1246258993E-01
H        -0.2745876025       -0.2917707454        0.4732209554    
CA        0.5254285363       -0.7318484399        -1.455912692    
HA        0.7550036790        -1.734136572        -1.822295028    
CB       -0.8784183037       -0.3667808709        -1.956436431    
HB        -1.143317449        0.6402162338        -1.630836450    
HB       -0.9015083164       -0.4044623718        -3.046395246    
HB        -1.608503546        -1.077587682        -1.566528336    
C          1.601139331        0.2164320487        -2.037232349    
O          1.935313745        0.1104930185        -3.221187798    
N          2.144372790         1.131989439        -1.220109707    
H          1.816194294         1.144725428       -0.2651377690    
CA         3.181556995         2.112800073        -1.579687343    
HA         3.239444598         2.809626933       -0.7417656657    
CB         4.545682263         1.404795908        -1.645227125    
HB         5.340870859         2.143163354        -1.754829536    
HB         4.716476063        0.8418488256       -0.7266525886    
HB         4.574225126        0.7224607805        -2.495439537    
C          2.849500619         3.002659141        -2.808392566    
O          3.745464245         3.422872722        -3.550663458    
N          1.558914967         3.293525218        -3.032092123    
H         0.8827330291         2.919002112        -2.380857221    
CH         1.059101208         4.103972896        -4.143864789    
HH       -0.2812762375E-01     4.186891760        -4.088778829    
HH         1.491434725         5.105922612        -4.102509616    
HH         1.329139739         3.641608637        -5.095606754    
