    52
Energy=    -38.4154095106943    
HH        -5.365644845        -3.348293575         5.593973726    
CH        -4.341068484        -3.645109088         5.373060676    
HH        -3.857130428        -3.992825738         6.284906172    
HH        -4.344302299        -4.446730568         4.635529685    
C         -3.575910117        -2.462960893         4.821364448    
O         -4.134100595        -1.373811362         4.684428772    
N         -2.299140874        -2.676679820         4.506554590    
H         -1.928222333        -3.604809142         4.644760353    
CA        -1.406981128        -1.660812289         3.939334412    
HA        -1.534397989       -0.7386575078         4.510052622    
CB        0.4391674894E-01    -2.125543736         4.126598964    
HB        0.2171045518        -3.046351333         3.567245333    
HB        0.2439063945        -2.302591615         5.184452985    
HB        0.7280743118        -1.356833422         3.764504793    
C         -1.720990102        -1.337763141         2.460046738    
O         -2.264565462        -2.167881830         1.720914182    
N         -1.348334711       -0.1321092898         2.017017237    
H        -0.8919946297        0.4928271699         2.665600248    
CA        -1.517087549        0.3289931046        0.6351541655    
HA        -2.528107504        0.7402148204E-01    0.3105300906    
CB        -1.394140071         1.859269561        0.6136983733    
HB        -2.124886569         2.299864926         1.293824951    
HB       -0.3903471807         2.159196800        0.9196575909    
HB        -1.585476324         2.233220006       -0.3931287664    
C        -0.5300649620       -0.3403529323       -0.3488912808    
O         0.5523429583       -0.7958539041        0.3678349419E-01
N        -0.8901964311       -0.3631352771        -1.637653881    
H         -1.793912410        0.1574046880E-01    -1.886129862    
CA       -0.8020709582E-01   -0.9492836621        -2.714655754    
HA        0.3881348255        -1.860639680        -2.338459669    
CB        -1.031512282        -1.349916206        -3.850336340    
HB        -1.512667657       -0.4637787819        -4.267432109    
HB       -0.4710856899        -1.854030553        -4.638919383    
HB        -1.794534629        -2.032389399        -3.472944431    
C          1.061113430       -0.3326462982E-01    -3.221158295    
O          1.951284695       -0.4959873437        -3.942470864    
N          1.049041850         1.255579187        -2.858609109    
H         0.2969310706         1.569722608        -2.265261266    
CA         2.064260619         2.240073967        -3.245951504    
HA         2.257114709         2.128822357        -4.314982670    
CB         1.487179575         3.644736457        -3.022448072    
HB         2.202376963         4.396068825        -3.360203901    
HB        0.5626192608         3.761556345        -3.589943076    
HB         1.282415561         3.801191310        -1.962009034    
C          3.410374351         2.046355779        -2.508356774    
O          3.460685958         1.514890816        -1.392078720    
N          4.506719083         2.509566845        -3.124725502    
H          4.384677302         2.943797415        -4.030244968    
CH         5.865321304         2.434982355        -2.584505098    
HH         6.573310024         2.879592932        -3.286735633    
HH         6.145227456         1.393162507        -2.414608798    
HH         5.922877648         2.975163295        -1.637149841    
    52
Energy=    -37.6456401692976    
HH        -4.722216180        -3.380230082         6.367767121    
CH        -4.358848394        -3.635787180         5.373433956    
HH        -3.723657649        -4.518376572         5.440728253    
HH        -5.199136440        -3.849703430         4.714500223    
C         -3.582192908        -2.462177945         4.815941269    
O         -4.143162216        -1.376200659         4.667478538    
N         -2.301669586        -2.670006340         4.509137013    
H         -1.923665065        -3.593989970         4.654492312    
CA        -1.413406068        -1.651280458         3.940585715    
HA        -1.549669783       -0.7268349753         4.505537317    
CB        0.3964061605E-01    -2.105216125         4.137533218    
HB        0.2218164975        -3.027872585         3.584106381    
HB        0.2356269962        -2.275067761         5.197318324    
HB        0.7203933190        -1.333900069         3.774551992    
C         -1.722109438        -1.338447273         2.457972367    
O         -2.255735560        -2.176497636         1.720550607    
N         -1.355923372       -0.1325100310         2.010341348    
H        -0.9075411467        0.4992359245         2.657877566    
CA        -1.520845564        0.3199121290        0.6251493577    
HA        -2.528279476        0.5581186805E-01    0.2966973036    
CB        -1.408943357         1.850910152        0.5960504474    
HB        -2.146405065         2.289794555         1.270007190    
HB       -0.4089661433         2.159811982        0.9055547196    
HB        -1.597766632         2.218038798       -0.4137573491    
C        -0.5238701976       -0.3474730985       -0.3501564592    
O         0.5597779269       -0.7930288757        0.4356828625E-01
N        -0.8770889370       -0.3797488324        -1.640628224    
H         -1.782215579       -0.8785931588E-02    -1.895819012    
CA       -0.5725847471E-01   -0.9657259112        -2.710252199    
HA        0.4157127209        -1.871625599        -2.326740157    
CB       -0.9996923728        -1.379333856        -3.848674446    
HB        -1.485079610       -0.4989634972        -4.273016487    
HB       -0.4315157965        -1.883557874        -4.631621440    
HB        -1.759703333        -2.065320007        -3.471575346    
C          1.080014876       -0.4413780204E-01    -3.215754856    
O          1.977270899       -0.5042109441        -3.929949062    
N          1.056702983         1.246501377        -2.860208665    
H         0.2992474865         1.558323774        -2.272461818    
CA         2.066760072         2.236280642        -3.247578244    
HA         2.265990127         2.120729350        -4.314982827    
CB         1.478346320         3.637877013        -3.034623060    
HB         2.189826684         4.392583281        -3.372707040    
HB        0.5559358509         3.744928865        -3.607517524    
HB         1.266923661         3.798497217        -1.976115163    
C          3.410377788         2.056311740        -2.501992878    
O          3.458720029         1.531194497        -1.382627932    
N          4.506533501         2.524197603        -3.115158569    
H          4.386069893         2.952687181        -4.023619401    
CH         5.862804528         2.462394880        -2.567517917    
HH         6.571202501         2.908394578        -3.268453649    
HH         6.149371784         1.423563089        -2.390575784    
HH         5.911497583         3.008030623        -1.622795317    
    52
Energy=    -38.4154095106940    
HH        -3.874518665        -3.971631884         6.287639493    
CH        -4.352798222        -3.640537149         5.366667147    
HH        -4.337553115        -4.450390510         4.638337187    
HH        -5.383492767        -3.354611113         5.573001353    
C         -3.596894747        -2.454821129         4.809892632    
O         -4.167531369        -1.374639907         4.654467189    
N         -2.314077906        -2.655438688         4.511472989    
H         -1.932775736        -3.577046420         4.664290807    
CA        -1.428876701        -1.634500686         3.942457173    
HA        -1.574464819       -0.7077114945         4.501196525    
CB        0.2573434327E-01    -2.078171200         4.150810610    
HB        0.2169439253        -3.002889749         3.603917905    
HB        0.2162942790        -2.240673038         5.212731985    
HB        0.7038836814        -1.304750014         3.787447908    
C         -1.730667101        -1.332250511         2.456246629    
O         -2.255300479        -2.177647129         1.720751885    
N         -1.368713803       -0.1269160544         2.003580047    
H        -0.9276582808        0.5111733487         2.649926480    
CA        -1.528124408        0.3163548767        0.6147900571    
HA        -2.532126733        0.4460583509E-01    0.2820973206    
CB        -1.424683666         1.847763050        0.5772205527    
HB        -2.168515932         2.286444271         1.244273196    
HB       -0.4282807361         2.164156733        0.8906592188    
HB        -1.609692980         2.207825865       -0.4358321127    
C        -0.5217476979       -0.3511314441       -0.3507414472    
O         0.5621165084       -0.7881325368        0.5187686022E-01
N        -0.8673002113       -0.3931160018        -1.643008263    
H         -1.773025700       -0.2885746581E-01    -1.905623518    
CA       -0.3797715538E-01   -0.9807686348        -2.704362755    
HA        0.4378900659        -1.881656332        -2.312713449    
CB       -0.9714381065        -1.406516569        -3.845698693    
HB        -1.459339999       -0.5314712021        -4.278094647    
HB       -0.3958846714        -1.912146268        -4.622325575    
HB        -1.729721416        -2.094567553        -3.468883519    
C          1.096965152       -0.5573735204E-01    -3.208814225    
O          2.000939588       -0.5149322269        -3.915057312    
N          1.064277156         1.236842824        -2.861144861    
H         0.3016719091         1.547835601        -2.279651004    
CA         2.070936947         2.230041031        -3.248606643    
HA         2.277004588         2.109272057        -4.314133857    
CB         1.473363425         3.629502655        -3.047444818    
HB         2.182503024         4.386226851        -3.385935809    
HB        0.5536983340         3.727878524        -3.626277737    
HB         1.254899724         3.795216366        -1.991154162    
C          3.411207308         2.062181182        -2.494223896    
O          3.456033634         1.544025622        -1.371473534    
N          4.508230542         2.532648897        -3.103852324    
H          4.390609997         2.955025253        -4.015542791    
CH         5.861631840         2.481844157        -2.548042343    
HH         6.571542874         2.927693615        -3.247541377    
HH         6.153051772         1.445735693        -2.363233062    
HH         5.901752802         3.033365755        -1.606339417    
