    52
Energy=    -37.2648567367028    
HH        -5.392348181        -5.603897518         3.450723994    
CH        -4.913785709        -5.646624712         2.473115568    
HH        -5.560929167        -6.173108479         1.772630221    
HH        -3.963115468        -6.171735373         2.557046052    
C         -4.664317189        -4.239712586         1.977463673    
O         -5.169817084        -3.856693055        0.9218389860    
N         -3.886874167        -3.471073261         2.738843454    
H         -3.509169344        -3.872633743         3.583945325    
CA        -3.515373124        -2.090992658         2.411678439    
HA        -4.415386519        -1.563231396         2.089549396    
CB        -3.007801826        -1.406092073         3.688177452    
HB        -2.780963786       -0.3593231813         3.480997047    
HB        -3.773449749        -1.451832474         4.464121426    
HB        -2.102875132        -1.901272334         4.044075388    
C         -2.486404551        -1.997911313         1.261123755    
O         -1.701786233        -2.924295371         1.022251353    
N         -2.469256216       -0.8576604756        0.5623373692    
H         -3.123154555       -0.1324940494        0.8193142700    
CA        -1.530708974       -0.5699885981       -0.5272144953    
HA        -1.486537153        -1.444019768        -1.180399765    
CB        -2.086437903        0.5992486985        -1.352501122    
HB        -3.085996308        0.3550477445        -1.715746866    
HB        -2.136068286         1.500877320       -0.7394947350    
HB        -1.440202350        0.7880126994        -2.210919586    
C        -0.9459314873E-01   -0.2902477798       -0.2748407559E-01
O         0.1178189624        0.1307331682         1.115201518    
N         0.8969301793       -0.4870664929       -0.9047385862    
H         0.6587997870       -0.8400133267        -1.821739083    
CA         2.320683390       -0.2924789027       -0.5983419271    
HA         2.524967862       -0.7274635743        0.3817997660    
CB         3.134414783        -1.075578193        -1.637354650    
HB         4.197210291        -1.004269768        -1.401432883    
HB         2.963781161       -0.6672905289        -2.634853256    
HB         2.843027786        -2.126932733        -1.622152095    
C          2.759964312         1.190257220       -0.5365581294    
O          3.810561313         1.494141130        0.3646932623E-01
N          1.967316235         2.107574618        -1.112352509    
H          1.125289461         1.770353335        -1.556032800    
CA         2.197880472         3.561059009        -1.143463821    
HA         1.471145324         3.965469904        -1.850114969    
CB         1.841333555         4.157780999        0.2287680411    
HB         2.560979106         3.829344011        0.9794364282    
HB        0.8416158483         3.837033497        0.5247344309    
HB         1.856391158         5.246941767        0.1738803949    
C          3.577832700         3.998255512        -1.705859063    
O          4.135966489         5.023690207        -1.296883807    
N          4.137760961         3.222010674        -2.646146319    
H          3.621372385         2.402272820        -2.934248639    
CH         5.434235421         3.469145890        -3.279241243    
HH         6.224425641         3.473872430        -2.525519796    
HH         5.425707875         4.435223836        -3.788310730    
HH         5.649939966         2.687587027        -4.010418124    
    52
Energy=    -32.6065765124339    
HH        -5.336759689        -5.262858334         3.937107211    
CH        -5.012062919        -5.339912313         2.900188492    
HH        -5.805610718        -5.785260266         2.301351065    
HH        -4.119819233        -5.962300644         2.844567509    
C         -4.690465523        -3.959038350         2.373816403    
O         -5.300455560        -3.509135472         1.403210894    
N         -3.734432392        -3.287381230         3.013973679    
H         -3.282629312        -3.739159021         3.794922874    
CA        -3.271166052        -1.948510763         2.636506826    
HA        -4.147788827        -1.325061280         2.448977530    
CB        -2.514949809        -1.340028598         3.825647916    
HB        -2.211702892       -0.3194285249         3.587900665    
HB        -3.160704154        -1.317955030         4.704802687    
HB        -1.625166981        -1.932102175         4.045866550    
C         -2.415596474        -1.945090162         1.348412221    
O         -1.775990405        -2.944343270        0.9973406544    
N         -2.379534143       -0.8019530416        0.6551085314    
H         -2.909153935       -0.1665563134E-01     1.004819770    
CA        -1.583588577       -0.5968188226       -0.5593664309    
HA        -1.730095022        -1.458273880        -1.214322417    
CB        -2.121654067        0.6411490371        -1.290961218    
HB        -3.183901269        0.5131227340        -1.505263675    
HB        -1.983039776         1.530998098       -0.6743624318    
HB        -1.589618565        0.7757511206        -2.233808520    
C        -0.6865952064E-01   -0.4806705106       -0.2743444792    
O         0.3509047150       -0.9565178951E-01    0.8227896186    
N         0.7582282403       -0.7728841641        -1.285581483    
H         0.3541406555        -1.094669114        -2.154705997    
CA         2.223992903       -0.7127976500        -1.196152552    
HA         2.531259039        -1.181990538       -0.2596258656    
CB         2.798170436        -1.547174121        -2.348998163    
HB         3.886148057        -1.576956909        -2.274299032    
HB         2.520024618        -1.106015747        -3.307544042    
HB         2.416153035        -2.567783424        -2.295686253    
C          2.799833271        0.7249453643        -1.194050251    
O          3.944340041        0.9142114857       -0.7746537059    
N          2.010171352         1.705643631        -1.662770104    
H          1.114599379         1.399768089        -2.012028205    
CA         2.217936008         3.164755444        -1.682973514    
HA         2.171035978         3.486076755        -2.725224597    
CB         1.019117909         3.802926155       -0.9629423791    
HB        0.9866945277         3.475332736        0.7747285601E-01
HB        0.9006139233E-01     3.514965228        -1.457048862    
HB         1.108541120         4.889779023       -0.9927315517    
C          3.564717711         3.681515073        -1.112766156    
O          3.717748559         3.878406774        0.1000402516    
N          4.536039961         3.935147789        -2.001701513    
H          4.337453558         3.750611904        -2.976115946    
CH         5.868129147         4.439060743        -1.663650071    
HH         6.374503663         3.739577483       -0.9951475229    
HH         5.788312134         5.408091116        -1.166522564    
HH         6.466288705         4.556024793        -2.569474701    
    52
Energy=    -38.4154095106974    
HH        -5.232430295        -4.999821995         4.235990383    
CH        -5.080530456        -5.021900032         3.157563697    
HH        -6.011408019        -5.297454042         2.663402083    
HH        -4.308640637        -5.751095248         2.914623669    
C         -4.639756868        -3.653711816         2.687361535    
O         -5.313798079        -3.035998687         1.862332065    
N         -3.510343740        -3.180797147         3.212431475    
H         -3.019436136        -3.761112872         3.876019317    
CA        -2.915093972        -1.887256896         2.862994893    
HA        -3.707691687        -1.136183294         2.864031772    
CB        -1.908909407        -1.501384777         3.956083777    
HB        -1.496521769       -0.5133094357         3.746935827    
HB        -2.406417064        -1.475210104         4.926752595    
HB        -1.093944398        -2.226374328         3.987377659    
C         -2.269448263        -1.878137644         1.457892461    
O         -1.844023209        -2.917108534        0.9378528851    
N         -2.168404256       -0.6902542564        0.8516981463    
H         -2.517923849        0.1229400633         1.337499365    
CA        -1.540453356       -0.4810539417       -0.4569467157    
HA        -1.904714393        -1.252718665        -1.138415807    
CB        -1.998858238        0.8776402662        -1.005706661    
HB        -3.088473595        0.9095830731        -1.054746573    
HB        -1.643409799         1.682292907       -0.3596740773    
HB        -1.600368739         1.026079450        -2.010356506    
C         0.1068377199E-02   -0.5913730367       -0.4108646408    
O         0.6297146377       -0.3792302692        0.6320315194    
N         0.6163491875       -0.8866555036        -1.562107680    
H         0.4376097464E-01    -1.060095929        -2.377000845    
CA         2.071506064        -1.026296400        -1.712455802    
HA         2.464719480        -1.525107795       -0.8247577425    
CB         2.331627393        -1.943607833        -2.915009336    
HB         3.402598604        -2.126528774        -3.013157463    
HB         1.965890254        -1.475630647        -3.830406853    
HB         1.825761773        -2.899356378        -2.769950354    
C          2.828063744        0.3184463159        -1.844878271    
O          4.058285367        0.3492881656        -1.733466655    
N          2.115698465         1.426982035        -2.082344653    
H          1.114639150         1.334842490        -2.158560997    
CA         2.685784078         2.770961324        -2.218929099    
HA         3.555131948         2.707644706        -2.876669584    
CB         1.648555135         3.669688029        -2.906315053    
HB        0.7605954394         3.764397097        -2.279023141    
HB         1.366318705         3.242230910        -3.869711259    
HB         2.071820687         4.661077015        -3.073888279    
C          3.163421807         3.367420858       -0.8736807568    
O          2.656746418         3.018421229        0.1998844559    
N          4.126174579         4.297857715       -0.9356567222    
H          4.482269575         4.540668803        -1.850891673    
CH         4.698453133         4.988623171        0.2212967183    
HH         5.149449307         4.266097125        0.9047872879    
HH         3.919507310         5.539206275        0.7529844237    
HH         5.467088930         5.692377060       -0.1042548084    
