    52
Energy=    -38.1634053150324    
HH        -4.765849746       -0.2960506901        -1.056240571    
CH        -4.904530211        -1.078565385       -0.3111527591    
HH        -5.930645102        -1.058015342        0.5380057903E-01
HH        -4.697743400        -2.049647784       -0.7592429188    
C         -3.958627859       -0.8516835765        0.8460519745    
O         -3.189899558        0.1100281560        0.8391619459    
N         -4.006678878        -1.737781396         1.840031369    
H         -4.659880650        -2.503473369         1.765460844    
CA        -3.140107197        -1.681750637         3.019851492    
HA        -3.217631030       -0.6809594006         3.449726144    
CB        -3.656382522        -2.677824422         4.066572901    
HB        -3.607325306        -3.694646601         3.673572202    
HB        -3.043121590        -2.614768017         4.966672908    
HB        -4.689041479        -2.441047661         4.327086113    
C         -1.659161176        -1.934906541         2.661204443    
O         -1.339746465        -2.861173626         1.907680498    
N        -0.7582620342        -1.111961453         3.214660600    
H         -1.106515256       -0.3969175534         3.838633855    
CA        0.6949491840        -1.133404700         2.982351913    
HA         1.081486491       -0.2125517576         3.422377470    
CB         1.317572174        -2.288707870         3.784807184    
HB         1.011229626        -3.246753893         3.363407431    
HB        0.9956553917        -2.234094880         4.825604593    
HB         2.405473311        -2.218021564         3.752746754    
C          1.135385904        -1.071118909         1.493725721    
O          2.234869400        -1.515668582         1.143806366    
N         0.2933426080       -0.5223083331        0.6084261520    
H        -0.5896235972       -0.1698252190        0.9480630109    
CA        0.5728291638       -0.3818976146       -0.8241539097    
HA         1.008595189        -1.317560048        -1.180576866    
CB       -0.7560131855       -0.1810767442        -1.565138829    
HB        -1.225421795        0.7504755088        -1.245253653    
HB       -0.5775548857       -0.1369594252        -2.640336648    
HB        -1.427859834        -1.014661790        -1.355329304    
C          1.583348313        0.7467496494        -1.133703704    
O          1.737042807         1.701894969       -0.3624274018    
N          2.258751603        0.6489496028        -2.283749893    
H          2.073873967       -0.1457741128        -2.878304737    
CA         3.219278430         1.646993803        -2.765581493    
HA         3.870408830         1.924371094        -1.934039305    
CB         4.096821462        0.9968717579        -3.844149421    
HB         4.860069647         1.702690000        -4.174789246    
HB         4.590291045        0.1123723012        -3.438424976    
HB         3.485360069        0.7084312637        -4.700721782    
C          2.540639976         2.940653805        -3.275360040    
O          1.377926417         2.931457358        -3.699382184    
N          3.282454669         4.056788289        -3.259779753    
H          4.228847212         3.983168484        -2.910015468    
CH         2.825505368         5.371910423        -3.712389370    
HH         1.958156275         5.689157754        -3.129581845    
HH         3.621488501         6.108865195        -3.588433088    
HH         2.545970024         5.329729282        -4.767225300    
    52
Energy=    -32.4098719116726    
HH        -6.412760754        0.2994067168        0.3503892125    
CH        -6.162894687       -0.7088531362        0.6784499898    
HH        -7.021408600        -1.152407286         1.181207071    
HH        -5.893315727        -1.316982885       -0.1841363248    
C         -4.994360321       -0.6577046352         1.637190542    
O         -4.480083089        0.4225377916         1.929022627    
N         -4.577057743        -1.824106412         2.127416894    
H         -5.053545206        -2.660597671         1.825249725    
CA        -3.444691702        -1.975681394         3.046645469    
HA        -3.538698150        -1.218048010         3.827408523    
CB        -3.544272688        -3.350845054         3.721621125    
HB        -3.452509564        -4.141644113         2.975278111    
HB        -2.745031898        -3.461566418         4.455861837    
HB        -4.504085560        -3.445763495         4.231722154    
C         -2.073611078        -1.769295197         2.359778821    
O         -1.938755843        -1.984834345         1.151286291    
N         -1.074543940        -1.367483867         3.160981012    
H         -1.328029768        -1.223764480         4.128089411    
CA        0.3512463816        -1.144782671         2.856331283    
HA        0.5674400313       -0.9517736060E-01     3.064634883    
CB         1.167454458        -1.976477149         3.858634696    
HB        0.9548977904        -3.038839525         3.728225177    
HB        0.9151880104        -1.684258060         4.878991747    
HB         2.232664736        -1.803123566         3.698922338    
C         0.8012190815        -1.415942139         1.397108639    
O          1.103520270        -2.554908189         1.018905531    
N         0.8791104871       -0.3514055059        0.5900521155    
H         0.6306271879        0.5502043330        0.9724993184    
CA         1.302961003       -0.3780608749       -0.8152365060    
HA         1.951063791        -1.241314424       -0.9785497391    
CB        0.5568899997E-01   -0.5405090655        -1.697349903    
HB       -0.6123805918        0.3112862048        -1.560912673    
HB        0.3471158468       -0.6001044814        -2.746765249    
HB       -0.4721718736        -1.456485308        -1.428603562    
C          2.109031287        0.8807029106        -1.206917925    
O          2.019100560         1.926173047       -0.5519983502    
N          2.887863972        0.7861680380        -2.289742078    
H          2.903131453       -0.9083959976E-01    -2.789884334    
CA         3.685696738         1.890381406        -2.833456903    
HA         4.198038245         2.383108138        -2.004512492    
CB         4.760454809         1.304044784        -3.759268950    
HB         5.406021561         2.102194424        -4.128393306    
HB         5.371269905        0.5851515349        -3.211045634    
HB         4.291255488        0.8055546293        -4.609064979    
C          2.827042024         2.959788478        -3.549765778    
O          1.728154332         2.675721722        -4.043243831    
N          3.345096157         4.193181861        -3.631390950    
H          4.254109036         4.345907154        -3.214519850    
CH         2.694435570         5.333205298        -4.279640877    
HH         1.735373485         5.540663241        -3.800298281    
HH         3.326209562         6.220213101        -4.201304322    
HH         2.521726827         5.116211306        -5.335901748    
    52
Energy=    -38.5116788737168    
HH        -7.667008577       -0.8242293851         3.780106012    
CH        -7.182403797        -1.603895038         3.193643887    
HH        -7.618273157        -2.570999375         3.441211673    
HH        -7.323510216        -1.403184363         2.132341533    
C         -5.702400404        -1.629167720         3.503920065    
O         -5.226804528       -0.8354641052         4.316585082    
N         -4.975968369        -2.540684466         2.858677930    
H         -5.450031731        -3.144257452         2.203658101    
CA        -3.526585381        -2.700911009         3.011226471    
HA        -3.291404736        -2.675756597         4.077236134    
CB        -3.129782958        -4.085725481         2.481176272    
HB        -3.344771085        -4.153458510         1.413495052    
HB        -2.062975750        -4.250287097         2.639081475    
HB        -3.686136319        -4.860115975         3.011439244    
C         -2.718167178        -1.571636173         2.331177809    
O         -3.174205067       -0.9438489501         1.367421171    
N         -1.495619039        -1.332317053         2.817777332    
H         -1.174144664        -1.892695926         3.593623724    
CA       -0.5671098255       -0.3395420862         2.267412878    
HA        -1.120348424        0.5854529173         2.091941448    
CB        0.5098468959       -0.4283435386E-01     3.320134317    
HB         1.093639348       -0.9422907598         3.522701205    
HB        0.4166693514E-01    0.2994013293         4.244359227    
HB         1.177769689        0.7391135443         2.955971803    
C         0.4989546524E-01   -0.7745659656        0.9175800766    
O         0.1552176732        -1.969819806        0.6167960135    
N         0.4846038716        0.2042326099        0.1166155282    
H         0.3888851111         1.156684033        0.4410309783    
CA         1.119363507        0.1282826854E-01    -1.193172173    
HA         1.589456104       -0.9721131356        -1.223962581    
CB        0.2814103035E-01    0.5839203550E-01    -2.273617987    
HB       -0.4562517910         1.036148951        -2.274781330    
HB        0.4688125591       -0.1214732497        -3.255128179    
HB       -0.7193697580       -0.7121039513        -2.079544181    
C          2.225355563         1.057144664        -1.464974157    
O          2.250786123         2.133468469       -0.8560366040    
N          3.133902435        0.7462165300        -2.395476727    
H          3.046372029       -0.1417383729        -2.868127436    
CA         4.224144914         1.632989419        -2.815577762    
HA         4.685543480         2.055925486        -1.920780698    
CB         5.288605142        0.7897919139        -3.531096793    
HB         6.139123641         1.418030203        -3.799399892    
HB         5.636271966       -0.7152631963E-02    -2.871962682    
HB         4.870995063        0.3513063864        -4.438910314    
C          3.738814510         2.813768237        -3.689790603    
O          2.700678260         2.732965662        -4.358777243    
N          4.510957113         3.909139334        -3.705830028    
H          5.350973198         3.896065910        -3.142257399    
CH         4.229785045         5.120281837        -4.478693575    
HH         3.270622019         5.545188905        -4.175264173    
HH         5.012503748         5.862722928        -4.310789665    
HH         4.190540616         4.885009214        -5.544390262    
