    52
Energy=    -35.8134451055384    
HH        -3.434428011       -0.1665188570         7.314555135    
CH        -2.730264267        0.2696284821         6.607103535    
HH        -3.220098513         1.070290237         6.054335402    
HH        -1.872366468        0.6700528088         7.145919761    
C         -2.270848715       -0.7968883012         5.637977047    
O         -1.076613334        -1.085621573         5.556617429    
N         -3.218650870        -1.382550377         4.907659585    
H         -4.170724866        -1.074665228         5.037096407    
CA        -2.965811161        -2.412352422         3.895074847    
HA        -2.221419288        -3.105881419         4.291524378    
CB        -4.261863097        -3.203753639         3.670838064    
HB        -4.082011276        -4.016444856         2.965719345    
HB        -4.605680586        -3.628870378         4.615021424    
HB        -5.035337359        -2.548432312         3.267071542    
C         -2.405816252        -1.836760074         2.573076977    
O         -2.648718840       -0.6719000021         2.233594807    
N         -1.702359261        -2.685589510         1.809375418    
H         -1.584059456        -3.624586788         2.162267566    
CA        -1.028937064        -2.374927465        0.5372207402    
HA       -0.4633347058        -3.265710039        0.2576023016    
CB        -2.097273774        -2.185607572       -0.5564235384    
HB        -2.798673143        -3.021155294       -0.5383233690    
HB        -2.643943751        -1.255816249       -0.3955468905    
HB        -1.628723912        -2.153553257        -1.540525111    
C         0.1928737524E-01    -1.231057811        0.6093900336    
O         0.3233105406       -0.6932682803         1.680664817    
N         0.6154689608       -0.8916418560       -0.5396686911    
H         0.3246192696        -1.371964861        -1.379710203    
CA         1.635236628        0.1527600398       -0.6972608752    
HA         1.522883817        0.8881895447        0.1018257906    
CB         3.021496890       -0.4956103859       -0.5626374359    
HB         3.168488318        -1.231758305        -1.354559944    
HB         3.797621049        0.2672336358       -0.6376312501    
HB         3.108711029       -0.9887133091        0.4065255348    
C          1.494451062        0.9077674349        -2.038013920    
O         0.8945215407        0.4031081132        -2.994756117    
N          2.064352882         2.114981267        -2.114093749    
H          2.554128757         2.462105197        -1.302213471    
CA         2.071360114         2.951547281        -3.318897333    
HA         1.065255570         2.948893808        -3.743364133    
CB         2.396680517         4.394091504        -2.907484795    
HB         2.347452133         5.047423037        -3.779715167    
HB         1.673313631         4.741879755        -2.168406962    
HB         3.400379787         4.444906158        -2.482279528    
C          3.036755595         2.430311893        -4.409943149    
O          4.020707546         1.738183775        -4.119068527    
N          2.768677131         2.788806125        -5.673238235    
H          1.953030209         3.365998433        -5.831295234    
CH         3.568682585         2.408840219        -6.838938128    
HH         3.130589338         2.827283382        -7.747254479    
HH         3.602340447         1.321355145        -6.933017260    
HH         4.588155549         2.785962945        -6.733790388    
    52
Energy=    -35.3624105279001    
HH        -3.856060424        0.7743314944         6.569282556    
CH        -3.077954951         1.076138458         5.869265763    
HH        -3.503866541         1.738512175         5.116663663    
HH        -2.285452054         1.595893833         6.406335653    
C         -2.513092137       -0.1519034050         5.190618208    
O         -1.317027514       -0.4235600699         5.299330186    
N         -3.373556729       -0.8934962449         4.494677919    
H         -4.334316918       -0.5879275670         4.455197402    
CA        -3.009087895        -2.098938039         3.743811288    
HA        -2.313354558        -2.682077542         4.350588353    
CB        -4.271782747        -2.948465798         3.543234069    
HB        -4.014135096        -3.881375546         3.039942097    
HB        -4.718610504        -3.184002064         4.510334564    
HB        -4.995617155        -2.404841202         2.933914086    
C         -2.305324044        -1.786647720         2.402253858    
O         -2.510326491       -0.7195172775         1.810383705    
N         -1.519722597        -2.754381708         1.907252288    
H         -1.440999158        -3.600533610         2.453216831    
CA       -0.7072117066        -2.689396072        0.6807947814    
HA       -0.1157836617        -3.606374375        0.6496195343    
CB        -1.645325996        -2.743755046       -0.5399198344    
HB        -2.346326346        -3.572885284       -0.4324634622    
HB        -2.204218282        -1.811721863       -0.6303013354    
HB        -1.069003478        -2.898894849        -1.452463034    
C         0.3288553152        -1.533066077        0.6370034261    
O         0.5002494127       -0.7763997361         1.599851919    
N          1.060460371        -1.427360861       -0.4787798099    
H         0.8663889448        -2.076688037        -1.227228330    
CA         2.093129499       -0.4148486764       -0.7333052466    
HA         2.282340169        0.1469971751        0.1830768805    
CB         3.397023254        -1.136070420        -1.102175604    
HB         3.263902850        -1.701152633        -2.026089931    
HB         4.196639041       -0.4076260228        -1.243650602    
HB         3.682423116        -1.818869789       -0.3005071782    
C          1.667680042        0.6078306519        -1.810538877    
O         0.7981216027        0.3334835480        -2.646337912    
N          2.298994103         1.786619316        -1.804646685    
H          3.012226966         1.941064678        -1.106884552    
CA         2.061103975         2.856896438        -2.778925487    
HA        0.9824542293         2.973553360        -2.902675329    
CB         2.605774061         4.170513331        -2.201179999    
HB         2.385425119         4.993570349        -2.882410103    
HB         2.134648932         4.376918077        -1.238945756    
HB         3.686448568         4.100838509        -2.066705471    
C          2.657453028         2.547625372        -4.172757574    
O          3.620051791         1.780706890        -4.303414738    
N          2.098700860         3.171213907        -5.219290581    
H          1.322900858         3.792912174        -5.032106720    
CH         2.528625718         3.020628342        -6.610591330    
HH         1.904900940         3.633358061        -7.264493546    
HH         2.442836629         1.976614584        -6.919268349    
HH         3.568397893         3.336556612        -6.718591652    
    52
Energy=    -35.9139105452162    
HH        -4.103293613         1.708763613         5.433024563    
CH        -3.290972228         1.867283721         4.724812128    
HH        -3.690559275         2.285872113         3.801956049    
HH        -2.563005741         2.555610096         5.152505089    
C         -2.624833830        0.5430062562         4.424383603    
O         -1.428842942        0.3826407933         4.669443703    
N         -3.399230075       -0.4043600332         3.897596707    
H         -4.367284539       -0.1790898580         3.724061338    
CA        -2.928271204        -1.737535919         3.509631956    
HA        -2.253238099        -2.100963645         4.287148439    
CB        -4.134111691        -2.686280501         3.463827772    
HB        -3.799443170        -3.699455391         3.236938816    
HB        -4.638965196        -2.692446695         4.431039728    
HB        -4.835294090        -2.363246376         2.692644163    
C         -2.143629045        -1.737828114         2.176607181    
O         -2.354906722       -0.8753188211         1.315039092    
N         -1.279633635        -2.748266679         1.999532450    
H         -1.202878254        -3.417902484         2.751845926    
CA       -0.3803836059        -2.950159527        0.8509890628    
HA        0.2489535514        -3.807835348         1.095875475    
CB        -1.218445069        -3.370217266       -0.3710796313    
HB        -1.889597949        -4.185978919       -0.9821054955E-01
HB        -1.807686551        -2.527511187       -0.7341492022    
HB       -0.5670774010        -3.716118619        -1.174187519    
C         0.6073492760        -1.784736677        0.5727964961    
O         0.6573319980       -0.7826270204         1.295787424    
N          1.442850162        -1.938647885       -0.4611448177    
H          1.366458540        -2.780813117        -1.012270318    
CA         2.431678357       -0.9410684981       -0.8832353318    
HA         2.956348974       -0.5816262745        0.4436652984E-02
CB         3.465104243        -1.629702835        -1.785104420    
HB         2.983165751        -2.001463876        -2.690830830    
HB         4.243840739       -0.9186157275        -2.064533571    
HB         3.926265391        -2.463162376        -1.253018561    
C          1.792188334        0.2854377420        -1.574469849    
O         0.7079798025        0.1979556292        -2.163830774    
N          2.483343643         1.429314550        -1.527551689    
H          3.371780220         1.429540207        -1.048044536    
CA         2.059299726         2.677884753        -2.169520449    
HA         1.000788425         2.832729681        -1.950549157    
CB         2.837983857         3.839456627        -1.536691675    
HB         2.495027827         4.786375717        -1.955947230    
HB         2.672702303         3.853868257       -0.4582947746    
HB         3.904874567         3.728339794        -1.737183605    
C          2.215502817         2.648191219        -3.708582221    
O          3.044646012         1.909846532        -4.255592296    
N          1.431328837         3.478360961        -4.410132124    
H         0.7864151595         4.060463727        -3.891816858    
CH         1.440459684         3.605858550        -5.868508108    
HH        0.7037770059         4.346920999        -6.185023826    
HH         1.196344734         2.647072344        -6.330829587    
HH         2.427794287         3.922185588        -6.211590303    
