    52
Energy=    -37.2881753465248    
HH        -4.315710688       -0.8021339584         5.580663597    
CH        -3.257438577        -1.050166052         5.508258628    
HH        -2.939103149        -1.558582132         6.417668977    
HH        -2.678686426       -0.1363327356         5.379508716    
C         -3.037912989        -1.953799975         4.316470591    
O         -2.559918414        -3.077263718         4.470572558    
N         -3.378420104        -1.459679051         3.125974107    
H         -3.779185369       -0.5327676582         3.098149043    
CA        -3.281992373        -2.203783053         1.863308851    
HA        -3.643334066        -3.219429207         2.034559972    
CB        -4.223738248        -1.534626548        0.8525067702    
HB        -4.226701637        -2.101992358       -0.7934794391E-01
HB        -3.892215069       -0.5155341843        0.6467689953    
HB        -5.239453489        -1.510918378         1.250227785    
C         -1.844830252        -2.324262125         1.302291469    
O         -1.599846528        -3.152239780        0.4197655094    
N        -0.9013271996        -1.508736610         1.798513197    
H         -1.186792972       -0.8731174624         2.530097418    
CA        0.5111109843        -1.459888803         1.386221827    
HA        0.9281350714       -0.5611989409         1.844048013    
CB         1.261571352        -2.649377797         2.009229819    
HB        0.9233455402        -3.583957190         1.560359112    
HB         1.079713999        -2.680871407         3.084330851    
HB         2.333517301        -2.540745298         1.839686931    
C         0.7395818212        -1.270992267       -0.1373059727    
O          1.729501173        -1.752233944       -0.6984565524    
N        -0.1798029888       -0.5702636096       -0.8148522639    
H        -0.9681625650       -0.2084826607       -0.2975713255    
CA       -0.1750410881       -0.3723602416        -2.270349515    
HA        0.1922142151        -1.285797426        -2.741604184    
CB        -1.630191195       -0.1736628960        -2.716330464    
HB        -2.035434135        0.7406675712        -2.279893932    
HB        -1.674578175       -0.9815860788E-01    -3.803686708    
HB        -2.235411922        -1.024712663        -2.399971987    
C         0.7374255250        0.7802673762        -2.755898517    
O          1.005198402        0.8920070324        -3.957048376    
N          1.216199162         1.638374238        -1.846606094    
H         0.9655302236         1.489178279       -0.8813304686    
CA         2.098202281         2.769183066        -2.153285379    
HA         1.697522630         3.287085837        -3.027140045    
CB         2.057168973         3.751116147       -0.9742616088    
HB         2.658418627         4.631507058        -1.205551287    
HB         1.029469935         4.067781406       -0.7897232038    
HB         2.455475594         3.275390101       -0.7656343144E-01
C          3.544042832         2.336118247        -2.493194817    
O          4.019999714         1.282968730        -2.050989661    
N          4.258017620         3.171102307        -3.260972006    
H          3.804886239         4.019659927        -3.574066960    
CH         5.643308556         2.946880138        -3.677999931    
HH         5.717627719         2.020384911        -4.251313433    
HH         5.986229596         3.774997743        -4.301443009    
HH         6.291814833         2.873398423        -2.802423660    
    52
Energy=    -31.3803116682100    
HH        -5.017848518       -0.6128746394         5.093414696    
CH        -3.956879928       -0.8339219275         5.203806938    
HH        -3.778206823        -1.286092921         6.178727133    
HH        -3.383451272        0.8834227105E-01     5.118780895    
C         -3.531149564        -1.790392398         4.113385298    
O         -3.061538201        -2.890432287         4.402822293    
N         -3.686381117        -1.367435895         2.858634758    
H         -4.096045898       -0.4549724917         2.716720630    
CA        -3.374028043        -2.171800558         1.670040721    
HA        -3.738163168        -3.187177690         1.836922428    
CB        -4.154393129        -1.581694731        0.4871758051    
HB        -3.996702108        -2.195595421       -0.4008127292    
HB        -3.814273691       -0.5654468011        0.2813905712    
HB        -5.221022446        -1.566395503        0.7162904108    
C         -1.863362987        -2.280214691         1.352467388    
O         -1.463515634        -3.145250293        0.5674557605    
N         -1.028004463        -1.413890981         1.946720529    
H         -1.439864251       -0.7494664486         2.586771229    
CA        0.4313711157        -1.347836671         1.764624790    
HA        0.7517553102       -0.4149430313         2.231797014    
CB         1.093256871        -2.481416067         2.566581200    
HB        0.8497605976        -3.447487144         2.123006394    
HB        0.7403427746        -2.460931565         3.598545664    
HB         2.176296721        -2.352313132         2.565564931    
C         0.9003572100        -1.233684655        0.2896586921    
O          1.978473931        -1.713469862       -0.7626945365E-01
N         0.9079697435E-01   -0.5959420814       -0.5668601025    
H        -0.7793371211       -0.2306076149       -0.2067869476    
CA        0.3281591280       -0.4862591817        -2.012528901    
HA        0.6804301121        -1.453406465        -2.375945950    
CB        -1.021873074       -0.1995361686        -2.684020243    
HB        -1.407431460        0.7670696749        -2.355717823    
HB       -0.8970489889       -0.1825045507        -3.767635914    
HB        -1.738472896       -0.9812961426        -2.427069790    
C          1.397804608        0.5610550955        -2.409125126    
O          1.890607623        0.5178493178        -3.539175512    
N          1.732381005         1.482086689        -1.490145672    
H          1.223915870         1.419795837       -0.6209810006    
CA         2.766885809         2.531877985        -1.530905193    
HA         2.261860519         3.491418904        -1.404610177    
CB         3.664990934         2.333076215       -0.2994541230    
HB         4.420691049         3.119138544       -0.2650023968    
HB         3.066582898         2.383433933        0.6113088193    
HB         4.161090313         1.362326080       -0.3478903419    
C          3.604018176         2.631867189        -2.833006302    
O          4.600019631         1.919098771        -3.014949385    
N          3.214675240         3.550393965        -3.728974143    
H          2.391942192         4.096667144        -3.510675591    
CH         3.879934578         3.805827296        -5.007592210    
HH         3.874427522         2.901490332        -5.619746970    
HH         3.361663358         4.600164162        -5.548347675    
HH         4.914503005         4.111710406        -4.838385317    
    52
Energy=    -36.1865992231628    
HH        -5.322720676       -0.1374964158         4.542507388    
CH        -4.299471613       -0.4126437276         4.795406777    
HH        -4.270993564       -0.8228173849         5.804266964    
HH        -3.662899249        0.4697206057         4.742215051    
C         -3.804021738        -1.447396172         3.811070075    
O         -3.443939292        -2.555841561         4.206149573    
N         -3.776701464        -1.082282302         2.529144251    
H         -4.107390613       -0.1565804942         2.296182212    
CA        -3.371903750        -1.964068086         1.426461739    
HA        -3.817401250        -2.946839332         1.591165107    
CB        -3.961636280        -1.392668788        0.1295069814    
HB        -3.734942126        -2.060028805       -0.7032630073    
HB        -3.535078608       -0.4096773247       -0.7680224801E-01
HB        -5.045240703        -1.304384756        0.2213418880    
C         -1.843553764        -2.175222913         1.307054482    
O         -1.405701447        -3.101603271        0.6181966212    
N         -1.034579418        -1.328188322         1.962486881    
H         -1.479212415       -0.6087728068         2.515196099    
CA        0.4373828224        -1.354925058         1.962553287    
HA        0.7561154478       -0.4187146668         2.424149849    
CB        0.9229416939        -2.481094369         2.891156646    
HB        0.6751922792        -3.453515070         2.464117246    
HB        0.4480505655        -2.386670835         3.868644202    
HB         2.003893204        -2.414301731         3.020474575    
C          1.090029524        -1.344797551        0.5545271924    
O          2.172028620        -1.904524525        0.3483073053    
N         0.4333674481       -0.7075727145       -0.4243939499    
H        -0.4480992084       -0.2724951883       -0.1920841140    
CA        0.8494902795       -0.6918826450        -1.832795318    
HA         1.192382416        -1.692909434        -2.100905408    
CB       -0.3916316539       -0.3810451291        -2.680460916    
HB       -0.7644805664        0.6182806470        -2.449985411    
HB       -0.1347041892       -0.4287666590        -3.739670278    
HB        -1.173582124        -1.114527132        -2.477229638    
C          2.011063337        0.2816081966        -2.145336873    
O          2.646269248        0.1588869754        -3.197017505    
N          2.293781000         1.237097450        -1.246424542    
H          1.727063099         1.260886446       -0.4109011145    
CA         3.361317357         2.245018964        -1.354375990    
HA         3.176645740         2.964913991       -0.5552078261    
CB         4.713484308         1.584944472        -1.034512070    
HB         5.488582976         2.348254840       -0.9564232413    
HB         4.651288676         1.052349538       -0.8459926015E-01
HB         4.984326159        0.8823320633        -1.823330403    
C          3.340832194         3.090388556        -2.656956578    
O          4.388998835         3.522466820        -3.151890841    
N          2.147456794         3.329774633        -3.221562566    
H          1.333967902         2.948688716        -2.758301818    
CH         1.936607575         4.093097251        -4.452666654    
HH         2.460380357         3.616010125        -5.283671374    
HH        0.8714806945         4.139181342        -4.687952561    
HH         2.315465461         5.110353337        -4.333560886    
