    52
Energy=    -37.2648567366994    
HH        -5.393048609        -5.603514814         3.450250465    
CH        -4.900033647        -5.655417414         2.480297757    
HH        -5.532390706        -6.197171619         1.777954204    
HH        -3.946170525        -6.170892603         2.585130546    
C         -4.655597829        -4.253287265         1.968839790    
O         -5.149059459        -3.889279694        0.9008642771    
N         -3.895936004        -3.467420966         2.730582078    
H         -3.527043648        -3.853987160         3.586499091    
CA        -3.531691624        -2.088726521         2.389700692    
HA        -4.431480150        -1.573421582         2.047407536    
CB        -3.048594582        -1.381906882         3.663745598    
HB        -2.827846053       -0.3361132774         3.445364841    
HB        -3.824969315        -1.423768512         4.429178714    
HB        -2.144663978        -1.864128095         4.039420081    
C         -2.487020804        -2.002341174         1.252855498    
O         -1.691041984        -2.924936005         1.038123456    
N         -2.469624980       -0.8716807181        0.5386617080    
H         -3.133423607       -0.1488712970        0.7761578737    
CA        -1.517929271       -0.5906940342       -0.5411859885    
HA        -1.456747865        -1.473182003        -1.181501887    
CB        -2.071748911        0.5621430102        -1.390479253    
HB        -3.063794777        0.3041434140        -1.764617985    
HB        -2.138045346         1.471625028       -0.7907948206    
HB        -1.414813129        0.7448201302        -2.242065388    
C        -0.9167105473E-01   -0.2914227141       -0.2481573721E-01
O         0.1005290474        0.1470649195         1.114860509    
N         0.9141118685       -0.4914805568       -0.8849373369    
H         0.6923419112       -0.8590733313        -1.800284866    
CA         2.331544263       -0.2801135937       -0.5608604203    
HA         2.525375721       -0.6997802282        0.4280434313    
CB         3.166973970        -1.070167018        -1.577139659    
HB         4.225586582       -0.9862245281        -1.326997178    
HB         3.007270857       -0.6771341250        -2.582544143    
HB         2.884503781        -2.123751459        -1.551560676    
C          2.757040878         1.207160404       -0.5133206805    
O          3.796564777         1.528166368        0.7046454132E-01
N          1.964904284         2.109437745        -1.113084433    
H          1.132337064         1.758719933        -1.564092552    
CA         2.183311319         3.564341845        -1.161011924    
HA         1.463409936         3.952568411        -1.883556125    
CB         1.801788740         4.176662212        0.1975635755    
HB         2.513307088         3.864940801        0.9629621662    
HB        0.8007038755         3.851171736        0.4835628831    
HB         1.808215822         5.265057677        0.1278171557    
C          3.567425901         4.005974252        -1.709541765    
O          4.110688703         5.041824836        -1.306839024    
N          4.147601329         3.221883322        -2.630852632    
H          3.642548559         2.393730502        -2.914956237    
CH         5.450917751         3.471770634        -3.248633881    
HH         6.230044536         3.493831696        -2.483785074    
HH         5.441403431         4.430658753        -3.771103125    
HH         5.683936167         2.682191359        -3.965745675    
    52
Energy=    -32.6065765124351    
HH        -5.343311562        -5.251865255         3.942895724    
CH        -5.008911934        -5.337664530         2.909754345    
HH        -5.794633075        -5.793434872         2.308443400    
HH        -4.112850014        -5.955666690         2.868449568    
C         -4.690082203        -3.960462092         2.372198379    
O         -5.293764464        -3.523809423         1.391648698    
N         -3.743480513        -3.277083432         3.013963779    
H         -3.296264550        -3.718408715         3.803483075    
CA        -3.284098520        -1.939588849         2.626991588    
HA        -4.162364558        -1.322910785         2.425296496    
CB        -2.541886794        -1.314901646         3.816553582    
HB        -2.242046750       -0.2951169274         3.571111053    
HB        -3.195613596        -1.287449185         4.689643876    
HB        -1.650924487        -1.899801225         4.050731910    
C         -2.417036590        -1.944550017         1.346609731    
O         -1.768907552        -2.943784212         1.011477347    
N         -2.380942012       -0.8083362798        0.6420187110    
H         -2.917920648       -0.2245202808E-01    0.9789563644    
CA        -1.575252956       -0.6111773373       -0.5673415897    
HA        -1.711212356        -1.480036890        -1.214747504    
CB        -2.113424163        0.6163122264        -1.316308164    
HB        -3.172997230        0.4802710204        -1.538756137    
HB        -1.985166079         1.513130645       -0.7076161884    
HB        -1.573686166        0.7442518008        -2.255698870    
C        -0.6359314758E-01   -0.4838035809       -0.2700226772    
O         0.3440197946       -0.8535182743E-01    0.8268203749    
N         0.7739044850       -0.7817243560        -1.270809066    
H         0.3793792301        -1.114544102        -2.140171240    
CA         2.238461051       -0.7126672055        -1.168930940    
HA         2.539845836        -1.170620045       -0.2249589656    
CB         2.827467039        -1.555544728        -2.308029865    
HB         3.914875802        -1.578579604        -2.223331276    
HB         2.555550405        -1.125687961        -3.273473031    
HB         2.450515269        -2.577646175        -2.247707365    
C          2.806470369        0.7281698815        -1.176375679    
O          3.946126771        0.9279836897       -0.7487442953    
N          2.015750438         1.699693688        -1.662108941    
H          1.125016906         1.385360868        -2.016197745    
CA         2.215788611         3.159646029        -1.695357785    
HA         2.176504234         3.470095499        -2.741212546    
CB         1.007121960         3.798494756       -0.9925998265    
HB        0.9671379062         3.481318703        0.5077604710E-01
HB        0.8410835094E-01     3.500418726        -1.492004751    
HB         1.090925610         4.885464383        -1.032687793    
C          3.554583365         3.689577337        -1.118470192    
O          3.695658044         3.899623199        0.9357883522E-01
N          4.532455776         3.939504710        -2.001252374    
H          4.343622173         3.743985830        -2.975463736    
CH         5.858711270         4.454150439        -1.656499172    
HH         6.362845989         3.764293611       -0.9764011120    
HH         5.769193320         5.427728235        -1.170022868    
HH         6.464332215         4.565194496        -2.558101188    
    52
Energy=    -38.4154095106929    
HH        -5.244713418        -4.982631799         4.241050573    
CH        -5.082391434        -5.015694302         3.164424565    
HH        -6.006951535        -5.301946676         2.664517634    
HH        -4.304159512        -5.743116726         2.936891906    
C         -4.644781595        -3.650272444         2.683351604    
O         -5.314340436        -3.045502207         1.845187771    
N         -3.523094677        -3.165206468         3.213870395    
H         -3.035323633        -3.735396758         3.888457584    
CA        -2.931756137        -1.872222041         2.855841649    
HA        -3.728504543        -1.125698632         2.841058162    
CB        -1.938234509        -1.468651115         3.954109951    
HB        -1.529383985       -0.4806060009         3.737990973    
HB        -2.445136512        -1.434640155         4.919661893    
HB        -1.119574808        -2.188610214         4.001145271    
C         -2.272769209        -1.874873220         1.456919359    
O         -1.836603954        -2.917061046        0.9524468138    
N         -2.172562329       -0.6931671344        0.8386332779    
H         -2.531240214        0.1233165205         1.312084843    
CA        -1.533306834       -0.4947931119       -0.4662186756    
HA        -1.886726755        -1.275956519        -1.142554952    
CB        -1.994016503        0.8551625443        -1.034275698    
HB        -3.083274495        0.8803718156        -1.094011831    
HB        -1.649254034         1.668871895       -0.3938200050    
HB        -1.586775332        0.9948164126        -2.036673223    
C         0.8295317295E-02   -0.5958371007       -0.4042828503    
O         0.6257501402       -0.3686795889        0.6421310667    
N         0.6361908876       -0.9002491797        -1.546300012    
H         0.7239522065E-01    -1.085883706        -2.364630007    
CA         2.093474850        -1.033261227        -1.681270112    
HA         2.480960677        -1.520047093       -0.7844247000    
CB         2.370193181        -1.962235902        -2.871098418    
HB         3.443057451        -2.140134375        -2.957045193    
HB         2.010618571        -1.506430122        -3.795038950    
HB         1.868303478        -2.919192692        -2.720307683    
C          2.843750691        0.3142234721        -1.821339209    
O          4.072659780        0.3532788072        -1.698595023    
N          2.127515407         1.416016746        -2.077785323    
H          1.127760059         1.317357461        -2.162484578    
CA         2.691374538         2.761632616        -2.223778608    
HA         3.567310617         2.696035225        -2.872492892    
CB         1.655767265         3.646843267        -2.930866084    
HB        0.7613364267         3.743390306        -2.313120567    
HB         1.385143226         3.207230079        -3.892121573    
HB         2.075078453         4.638720930        -3.105346621    
C          3.152794558         3.375541204       -0.8807213791    
O          2.637833704         3.035483391        0.1917705577    
N          4.110890091         4.310698065       -0.9438187134    
H          4.474358515         4.545459144        -1.858255056    
CH         4.668219106         5.017374565        0.2108213359    
HH         5.116682303         4.304976369        0.9065011260    
HH         3.881166660         5.569331391        0.7289740894    
HH         5.435995520         5.721865128       -0.1151644658    
