    52
Energy=    -38.4725634812772    
HH        -6.921938493        -1.574812720         1.017397667    
CH        -6.038508786        -1.050861868        0.6544457759    
HH        -6.246777253        0.1680129565E-01    0.5947824056    
HH        -5.774130933        -1.426651543       -0.3332370554    
C         -4.889203409        -1.293000123         1.606377779    
O         -4.343926746       -0.3458690145         2.171894526    
N         -4.517901811        -2.561944970         1.776754778    
H         -5.036724666        -3.274088480         1.282798328    
CA        -3.446605841        -2.999797567         2.681704189    
HA        -3.482229886        -2.382314445         3.580992685    
CB        -3.747877931        -4.446048620         3.098463023    
HB        -3.010555806        -4.779645055         3.829934988    
HB        -4.739263868        -4.503932322         3.550278789    
HB        -3.707883542        -5.103221247         2.228312792    
C         -2.019625075        -2.856862140         2.097280677    
O         -1.034460080        -2.998494649         2.829860341    
N         -1.890559717        -2.583617487        0.7931046740    
H         -2.734377105        -2.470792763        0.2521260477    
CA       -0.6091839815        -2.415586669        0.1003948492    
HA        0.4954344878E-01    -3.233717321        0.3990650986    
CB       -0.8522039107        -2.543516271        -1.409676066    
HB        -1.316020733        -3.505878064        -1.631509657    
HB        -1.505539342        -1.739767973        -1.753169184    
HB        0.9716134697E-01    -2.480954935        -1.943488473    
C         0.1047936643        -1.091040624        0.4568503091    
O        -0.5305393544       -0.9707413121E-01    0.8288074927    
N          1.434188724        -1.068601121        0.3127047759    
H          1.892059487        -1.907189622       -0.1365710182E-01
CA         2.271107537        0.1115844241        0.5519892911    
HA         1.961432258        0.5650183009         1.495894467    
CB         3.726721078       -0.3476437175        0.7134305750    
HB         4.360231788        0.5080516884        0.9513141609    
HB         4.080387288       -0.8038181086       -0.2126582947    
HB         3.799684166        -1.073655976         1.524626184    
C          2.125677069         1.186822340       -0.5499297531    
O          1.775479798        0.8870740361        -1.698034593    
N          2.423531889         2.444094338       -0.2052226915    
H          2.722111041         2.619766863        0.7430751222    
CA         2.392460689         3.583506890        -1.128106562    
HA         1.468609410         3.529148301        -1.707694210    
CB         2.346223995         4.876983794       -0.3029723847    
HB         3.257178745         4.975911144        0.2896279684    
HB         1.481991088         4.862373476        0.3628749211    
HB         2.260781426         5.737197349       -0.9683911428    
C          3.570620982         3.579864752        -2.131072908    
O          4.639443994         3.015878776        -1.863903129    
N          3.383421680         4.238543163        -3.283193857    
H          2.486853787         4.685187594        -3.424922987    
CH         4.379600141         4.360573032        -4.349000336    
HH         5.273211100         4.862536314        -3.972049005    
HH         3.972499345         4.942421494        -5.178324772    
HH         4.659031605         3.371059982        -4.716950515    
    52
Energy=    -32.6981575045583    
HH        -6.760105224        -4.349469783         1.660054756    
CH        -6.416070278        -3.554453707        0.9995256448    
HH        -7.251978677        -2.903084314        0.7468850782    
HH        -6.005741764        -3.990853036        0.8967513247E-01
C         -5.341297711        -2.754800071         1.699900610    
O         -5.495102823        -1.549890511         1.897061109    
N         -4.247699204        -3.423420465         2.066704646    
H         -4.217083476        -4.415543457         1.878823294    
CA        -3.118216530        -2.827839055         2.793585296    
HA        -3.518233566        -2.186929880         3.581412878    
CB        -2.342268554        -3.968174396         3.467026471    
HB        -1.535313310        -3.555611169         4.074218901    
HB        -3.008909566        -4.540302032         4.114038330    
HB        -1.915764017        -4.629711595         2.711265490    
C         -2.190667033        -1.944894208         1.922218245    
O         -1.395836058        -1.180186677         2.475007968    
N         -2.293816693        -2.066357863        0.5882932474    
H         -2.967146621        -2.750002178        0.2756909467    
CA        -1.622383046        -1.315742890       -0.4882683976    
HA        -1.051672601        -2.034176218        -1.079783310    
CB        -2.720650955       -0.7527503292        -1.404318879    
HB        -3.334460529        -1.565885369        -1.794425325    
HB        -3.355841275       -0.6040090098E-01   -0.8493412260    
HB        -2.264756929       -0.2252162817        -2.243403564    
C        -0.6311096516       -0.2095274667       -0.4428345542E-01
O         -1.018958775        0.9355188883        0.2210588377    
N         0.6616810048       -0.5499327632        0.9183668541E-02
H         0.9155157509        -1.498309312       -0.2252386049    
CA         1.741984471        0.3699140708        0.3787764664    
HA         1.433171547        0.9170685581         1.271891836    
CB         2.981810310       -0.4566007495        0.7469353594    
HB         3.781022117        0.2054004585         1.083273501    
HB         3.328958750        -1.018354890       -0.1218101914    
HB         2.739641959        -1.150847794         1.553074520    
C          2.050326309         1.412151598       -0.7211466985    
O          1.799078034         1.184315632        -1.911006821    
N          2.624218399         2.552733126       -0.3236864888    
H          2.820969445         2.669163697        0.6596717352    
CA         3.033242130         3.631479689        -1.229175263    
HA         2.220935988         3.810684068        -1.936580386    
CB         3.221478553         4.913018691       -0.4055789317    
HB         4.031686249         4.780544119        0.3133203750    
HB         2.300048520         5.150368285        0.1283673508    
HB         3.466778024         5.745022479        -1.067129114    
C          4.296521633         3.282497011        -2.051593355    
O          5.123981255         2.459627329        -1.639239720    
N          4.459735898         3.934112762        -3.211350733    
H          3.746768861         4.601225555        -3.476034853    
CH         5.592568014         3.753260568        -4.120853154    
HH         6.525713149         4.006897947        -3.613400168    
HH         5.479805973         4.399281441        -4.993779296    
HH         5.643442821         2.714983187        -4.455513757    
    52
Energy=    -37.6972571225957    
HH        -4.456050049        -6.071678025        0.5883407853    
CH        -4.794670097        -5.120383219        0.1795926347    
HH        -5.873270030        -5.151296902        0.2954613632E-01
HH        -4.298884531        -4.937860530       -0.7730395421    
C         -4.446730663        -4.010919304         1.145596568    
O         -5.334399726        -3.307236339         1.626548384    
N         -3.152715472        -3.848594945         1.422252250    
H         -2.496019444        -4.484696491        0.9925367562    
CA        -2.627523482        -2.856513406         2.369497607    
HA        -3.267033685        -2.853800683         3.254059112    
CB        -1.228943165        -3.317533459         2.802721673    
HB       -0.8345926398        -2.636512717         3.558324963    
HB        -1.283907247        -4.319791710         3.230360335    
HB       -0.5535464840        -3.326671730         1.945662410    
C         -2.601606741        -1.407649198         1.826327004    
O         -2.458810945       -0.4631601802         2.608786191    
N         -2.733434984        -1.225588715        0.5032444043    
H         -2.860188873        -2.054044305       -0.6068549239E-01
CA        -2.716929510        0.6566860767E-01   -0.2035802337    
HA        -2.646180507       -0.1733658451        -1.266078628    
CB        -4.071691158        0.7674494839       -0.8318587146E-02
HB        -4.883088113        0.8854071876E-01   -0.2740056473    
HB        -4.188068745         1.077139548         1.030824207    
HB        -4.128538042         1.647356844       -0.6502527437    
C         -1.476501469        0.9532386187        0.8464770264E-01
O         -1.554712253         2.186974375        0.5848608323E-01
N        -0.3263670003        0.3301243296        0.3693040865    
H        -0.3235369841       -0.6784946776        0.3569787644    
CA        0.9359934271         1.008683105        0.6764969698    
HA        0.7261059621         1.820750881         1.375698416    
CB         1.860860250        0.1160741202E-01     1.388258769    
HB         2.785022969        0.5103243687         1.683733232    
HB         2.103023705       -0.8169929822        0.7207291423    
HB         1.370789094       -0.3765816088         2.282591323    
C          1.606387360         1.631071979       -0.5701091225    
O          1.386676609         1.190938910        -1.705326281    
N          2.450810338         2.645278780       -0.3543074176    
H          2.601412908         2.944844861        0.5979837787    
CA         3.213782004         3.323975668        -1.407025639    
HA         2.539228265         3.527521973        -2.241246509    
CB         3.698267132         4.674963922       -0.8628016904    
HB         4.383279634         4.518455575       -0.2789911050E-01
HB         2.846138521         5.266659465       -0.5248118912    
HB         4.216966423         5.225673074        -1.648753244    
C          4.381897610         2.468501333        -1.952645313    
O          4.909582744         1.587364687        -1.262012764    
N          4.806775644         2.749241732        -3.192383717    
H          4.333668263         3.491658043        -3.690786695    
CH         5.904255183         2.063179349        -3.876539307    
HH         6.831806200         2.183607681        -3.312849287    
HH         6.042937995         2.480747325        -4.875770421    
HH         5.682274100        0.9978241227        -3.967900405    
