    52
Energy=    -39.6092682916847    
HH        -3.878115929         2.254595192         3.288775662    
CH        -3.586357787         1.556019501         4.072004219    
HH        -2.622943892         1.854194199         4.483705457    
HH        -4.337089412         1.558640694         4.861353405    
C         -3.469997085        0.1674473144         3.484003130    
O         -4.172171025       -0.7468556275         3.916722642    
N         -2.583390153        0.1574157914E-01     2.501168397    
H         -2.043947238        0.8254413186         2.229625050    
CA        -2.298343197        -1.241924198         1.800503897    
HA        -2.537296688        -2.080713209         2.457285599    
CB        -3.202619634        -1.325035845        0.5605447384    
HB        -2.979014514       -0.5033524338       -0.1220960808    
HB        -3.041829495        -2.272410800        0.4410542820E-01
HB        -4.249815780        -1.265671703        0.8607439019    
C        -0.8088375529        -1.366147972         1.415726924    
O        -0.9419868126E-01   -0.3653751985         1.304815074    
N        -0.3440511267        -2.593403086         1.154766235    
H        -0.9784029243        -3.374637322         1.252529120    
CA         1.055576214        -2.890765280        0.8161877052    
HA         1.692242489        -2.472297332         1.597939053    
CB         1.227362805        -4.415371834        0.8309037217    
HB        0.6059592383        -4.870849740        0.5805545945E-01
HB        0.9417400842        -4.812768196         1.806036254    
HB         2.271539482        -4.669113021        0.6424244153    
C          1.527318126        -2.283309745       -0.5273902135    
O          2.732138295        -2.128594425       -0.7478132879    
N         0.5936003293        -1.911584932        -1.412893320    
H        -0.3705963914        -2.106147194        -1.185656801    
CA        0.8682851190        -1.256006716        -2.696110657    
HA         1.777143979        -1.688516637        -3.118295752    
CB       -0.2904900151        -1.589135520        -3.645950683    
HB        -1.219985019        -1.158754409        -3.269652085    
HB       -0.8468466967E-01    -1.179492542        -4.635823717    
HB       -0.4014155635        -2.671122629        -3.732210623    
C          1.104115917        0.2717247243        -2.592288183    
O          1.508915281        0.8968792904        -3.578470350    
N         0.8551845240        0.8874121969        -1.428315810    
H         0.5506548002        0.3280448068       -0.6425721698    
CA         1.031913421         2.326339403        -1.204170191    
HA        0.6225873391         2.857231562        -2.066146555    
CB        0.2068978966         2.739725668        0.2223655221E-01
HB        0.2489512085         3.822459699        0.1476705536    
HB        0.6073150412         2.264900913        0.9189421375    
HB       -0.8341940339         2.441987741       -0.1112390450    
C          2.516155759         2.741157592        -1.068541336    
O          3.376650691         1.937508195       -0.6876454372    
N          2.813332491         4.015864971        -1.357234113    
H          2.054519835         4.616975823        -1.650921032    
CH         4.152443016         4.601909368        -1.277188757    
HH         4.119935603         5.653467912        -1.569103889    
HH         4.834760897         4.072024411        -1.945210740    
HH         4.532548226         4.531663273       -0.2558339022    
    52
Energy=    -33.4556231991546    
HH        -4.186968838         2.287918835         3.085303011    
CH        -4.026530195         1.533073080         3.854090027    
HH        -3.107436378         1.755454604         4.394813860    
HH        -4.866962926         1.533896734         4.547166362    
C         -3.905591442        0.1741128582         3.201371551    
O         -4.698530619       -0.7222884707         3.491181326    
N         -2.913574104        0.2709916255E-01     2.324118626    
H         -2.307019370        0.8196151027         2.167505225    
CA        -2.606168231        -1.204849378         1.588143974    
HA        -2.968562402        -2.062473707         2.158403100    
CB        -3.350653848        -1.169331720        0.2440393771    
HB        -3.002221637       -0.3264256801       -0.3552790085    
HB        -3.174004666        -2.095284017       -0.3050635422    
HB        -4.422942562        -1.066269576        0.4168063499    
C         -1.088229627        -1.395819965         1.383350395    
O        -0.3140792109       -0.4339203515         1.417384514    
N        -0.6605010782        -2.635209971         1.114742406    
H         -1.345951737        -3.377986883         1.086405935    
CA        0.7521558331        -3.010700884        0.9526601794    
HA         1.296006040        -2.678541650         1.838966290    
CB        0.8258132104        -4.542406545        0.8990181527    
HB        0.2937018928        -4.913425795        0.2145247146E-01
HB        0.3803753145        -4.968334292         1.799344540    
HB         1.868450970        -4.858525373        0.8422348591    
C          1.448817460        -2.369366758       -0.2720565770    
O          2.680870862        -2.315393867       -0.3260070231    
N         0.6782222047        -1.848997351        -1.236174788    
H        -0.3210752419        -1.965304372        -1.150842032    
CA         1.178622255        -1.127550659        -2.411868285    
HA         2.031395530        -1.677528963        -2.814121327    
CB        0.6868301836E-01    -1.142635563        -3.472177591    
HB       -0.8004848573       -0.5885689441        -3.113843876    
HB        0.4306679710       -0.6797211100        -4.391261441    
HB       -0.2226735458        -2.171018777        -3.691287091    
C          1.669933100        0.3133666166        -2.116892569    
O          2.267876362        0.9314414119        -3.001330358    
N          1.407158565        0.8325719133       -0.9046264789    
H         0.8853700458        0.2336412072       -0.2782259235    
CA         1.808063403         2.126257974       -0.3215066922    
HA        0.8934533787         2.674483905       -0.8816989684E-01
CB         2.505415213         1.829075985         1.015646871    
HB         2.784037405         2.765512695         1.500858672    
HB         3.403460991         1.232484559        0.8478611495    
HB         1.831703437         1.281888270         1.675657942    
C          2.677493168         3.052878167        -1.211391067    
O          3.903150366         2.898817598        -1.297090636    
N          2.040635434         4.047245608        -1.846770862    
H          1.038503660         4.112662497        -1.726882460    
CH         2.686033586         5.031932388        -2.716516080    
HH         1.943389161         5.728015425        -3.111409470    
HH         3.176547130         4.528677347        -3.552408370    
HH         3.434155848         5.595756481        -2.155323720    
    52
Energy=    -38.3818569205255    
HH        -3.685524154         2.724423732         3.027949007    
CH        -3.766063519         1.886036252         3.718742944    
HH        -2.904151215         1.880506984         4.384814606    
HH        -4.679346450         1.982609114         4.304643150    
C         -3.798679465        0.5938987869         2.933431266    
O         -4.768645497       -0.1591598788         3.024569371    
N         -2.738444196        0.3426807498         2.166487463    
H         -1.986465359         1.017178961         2.173639774    
CA        -2.556190757       -0.8529300939         1.335076316    
HA        -3.135743980        -1.675447498         1.758923087    
CB        -3.097074218       -0.5558977045       -0.7254454090E-01
HB        -2.530381138        0.2580452191       -0.5280069240    
HB        -3.013009939        -1.444498171       -0.6998154768    
HB        -4.148293514       -0.2700809423       -0.1300442682E-01
C         -1.081619733        -1.305867092         1.284053859    
O        -0.1626676509       -0.5097984530         1.504152319    
N        -0.8459170829        -2.576867294        0.9369959572    
H         -1.640909472        -3.175012651        0.7563549324    
CA        0.4891255570        -3.191904338        0.8918520600    
HA        0.9630891758        -3.049905278         1.864902075    
CB        0.3036055838        -4.698812202        0.6706043004    
HB       -0.1682005117        -4.881384566       -0.2963538473    
HB       -0.3197169362        -5.117321249         1.462269944    
HB         1.274837194        -5.195354012        0.6913767788    
C          1.435852310        -2.579641821       -0.1682440989    
O          2.658805100        -2.698382725       -0.4937990400E-01
N         0.8887381452        -1.890183647        -1.177994828    
H        -0.1189329911        -1.873039832        -1.242252186    
CA         1.647773377        -1.150903016        -2.193096679    
HA         2.494672823        -1.764290639        -2.506115557    
CB        0.7323354665       -0.9572615959        -3.409745985    
HB       -0.1239010841       -0.3362519036        -3.141312849    
HB         1.286233244       -0.4702064965        -4.213570444    
HB        0.3789176139        -1.925817530        -3.766812664    
C          2.224865667        0.1970849605        -1.692362349    
O          3.039450992        0.8087792105        -2.390138752    
N          1.815160237        0.6640272843       -0.5018829148    
H          1.160000165        0.9613736865E-01    0.2169930180E-01
CA         2.242648951         1.918879837        0.1357847069    
HA         1.572753542         2.064114561        0.9850078015    
CB         3.650687896         1.733627749        0.7268482759    
HB         3.912738664         2.599298241         1.336286278    
HB         4.383418116         1.627363103       -0.7379776254E-01
HB         3.674474187        0.8434428157         1.356850614    
C          2.060824919         3.194069879       -0.7312453396    
O          2.831286556         4.155275304       -0.6188252972    
N          1.041451716         3.209956873        -1.603610449    
H         0.4505205413         2.390840210        -1.637204076    
CH        0.7247297595         4.316805841        -2.507543466    
HH       -0.1545716988         4.072303729        -3.106729395    
HH         1.566024597         4.505668587        -3.177665010    
HH        0.5194287656         5.223165076        -1.934060966    
