    52
Energy=    -41.2338768086049    
HH        -4.206924229         1.221922432       -0.1643919623    
CH        -3.639320917        0.3114965134       -0.3527763330    
HH        -4.170924604       -0.5420107118        0.6609456994E-01
HH        -3.514990474        0.1740598776        -1.426309249    
C         -2.284010172        0.4262102601        0.3012309567    
O         -1.261792415        0.3529966350       -0.3779537821    
N         -2.265107714        0.5848454049         1.624311849    
H         -3.151687475        0.6319308844         2.106372101    
CA        -1.044001236        0.8055038270         2.410459695    
HA       -0.5453723265         1.696440051         2.024131986    
CB        -1.459967387         1.084399724         3.860586978    
HB        -1.967959936        0.2145336970         4.280400293    
HB       -0.5752867302         1.303380666         4.460357999    
HB        -2.128920101         1.945575772         3.896365205    
C        -0.3066573465E-01   -0.3589608421         2.329887475    
O          1.179288252       -0.1325517100         2.415888955    
N        -0.5026246035        -1.589865343         2.092576769    
H         -1.505394735        -1.708259027         2.051794091    
CA        0.3367154482        -2.775726752         1.875835418    
HA         1.075863172        -2.826429442         2.677450092    
CB       -0.5642639057        -4.013074294         1.981973237    
HB        -1.314068728        -4.000956970         1.189173402    
HB        -1.063266892        -4.027610097         2.952116165    
HB        0.3971015562E-01    -4.916459117         1.885796507    
C          1.114551454        -2.753231467        0.5365344176    
O          2.086203743        -3.497559075        0.3741406362    
N         0.7126282490        -1.889872547       -0.4057911539    
H        -0.1132314843        -1.336227821       -0.2101954875    
CA         1.350102935        -1.663636152        -1.708532663    
HA         2.251068580        -2.275408675        -1.773943217    
CB        0.3796622854        -2.145673974        -2.797356540    
HB       -0.5229368649        -1.532627715        -2.790027080    
HB        0.8537861540        -2.072985583        -3.776878963    
HB        0.1089140692        -3.187046598        -2.617779620    
C          1.811166739       -0.1964626175        -1.907219585    
O          2.060757669        0.2327073742        -3.038375762    
N          1.909212794        0.5790013291       -0.8159014364    
H          1.724568952        0.1417050149        0.7583784364E-01
CA         2.234269794         2.012841539       -0.7916008847    
HA         2.023448975         2.349974097        0.2246989806    
CB         3.747018018         2.196871461        -1.001013493    
HB         4.019570445         3.238950642       -0.8298820104    
HB         4.298163449         1.572143132       -0.2969060643    
HB         4.022182368         1.920273191        -2.019322314    
C          1.336733183         2.900923807        -1.695533936    
O          1.786578392         3.920551728        -2.232412877    
N         0.6311348909E-01     2.519272757        -1.872172821    
H        -0.2416686774         1.677761512        -1.392835462    
CH       -0.9229634995         3.222319798        -2.692387105    
HH        -1.880690520         2.699795633        -2.652378594    
HH        -1.060864150         4.240862785        -2.323824258    
HH       -0.5863729516         3.263384787        -3.730312970    
    52
Energy=    -35.7486198152330    
HH        -5.366997008       -0.5918697936        0.5827859974    
CH        -4.571098923        -1.318666550        0.4247928029    
HH        -4.655005397        -2.115135751         1.163196414    
HH        -4.654342890        -1.738908084       -0.5768743823    
C         -3.233436962       -0.6332230596        0.5779551307    
O         -2.430934139       -0.6234734339       -0.3544806361    
N         -2.978680210       -0.7832656804E-01     1.763444044    
H         -3.694547520       -0.1356334897         2.473942899    
CA        -1.768912272        0.6967951835         2.070337041    
HA        -1.696095902         1.514674208         1.351107523    
CB        -1.941788525         1.306963042         3.467543767    
HB        -2.020238069        0.5166092220         4.215978558    
HB        -1.081305943         1.935130032         3.702737769    
HB        -2.842258031         1.922395873         3.495922969    
C        -0.4578255270       -0.1166737707         1.970234621    
O         0.6087473676        0.4556056536         1.728327131    
N        -0.5290338486        -1.448968305         2.089517809    
H         -1.430935732        -1.852794206         2.299500525    
CA        0.6120684471        -2.361774235         1.952818634    
HA         1.393080314        -2.040692705         2.644555955    
CB        0.1462818394        -3.760847786         2.376587274    
HB       -0.6354939699        -4.116588007         1.703344844    
HB       -0.2400533663        -3.731419315         3.396546222    
HB        0.9878607275        -4.454195225         2.341450892    
C          1.234370573        -2.379750773        0.5356920993    
O          2.392509851        -2.776845112        0.3774250725    
N         0.5020950978        -1.917466457       -0.4875956666    
H        -0.4516705742        -1.631886146       -0.3020577978    
CA        0.9959954257        -1.762179236        -1.861238864    
HA         1.656799630        -2.601068924        -2.087090793    
CB       -0.2075592802        -1.853593970        -2.809009378    
HB       -0.8775025348        -1.008317258        -2.646535137    
HB        0.1367517988        -1.838542523        -3.843858838    
HB       -0.7496809150        -2.783994943        -2.634102677    
C          1.817772772       -0.4682689219        -2.094163331    
O          2.403324009       -0.3107997078        -3.168934191    
N          1.875087806        0.4282700822        -1.095700683    
H          1.386038669        0.1805052695       -0.2456390502    
CA         2.490533683         1.764047729        -1.098713739    
HA         2.247254660         2.204485955       -0.1298420508    
CB         4.022168620         1.638811073        -1.116983721    
HB         4.470320312         2.625432404       -0.9926326049    
HB         4.352269704        0.9960205766       -0.2997897758    
HB         4.357654105         1.216668275        -2.064691127    
C          1.932326713         2.740520758        -2.165727759    
O          2.164007798         2.595880393        -3.371278556    
N          1.218708147         3.779871935        -1.708874059    
H          1.077424281         3.848119205       -0.7095684579    
CH        0.6231089990         4.820942688        -2.548719761    
HH        0.8967869265E-01     5.544013018        -1.928492467    
HH         1.402033374         5.343763558        -3.107767781    
HH       -0.8087557862E-01     4.376377925        -3.255382708    
    52
Energy=    -37.9728100101726    
HH        -5.508713955        -1.115963979        0.7776684360    
CH        -4.656350666        -1.767417214        0.5886247390    
HH        -4.649341953        -2.576779318         1.317684222    
HH        -4.729585317        -2.181643419       -0.4163244288    
C         -3.380728090       -0.9678510608        0.7162896257    
O         -2.608064426       -0.8761146159       -0.2366621046    
N         -3.143806866       -0.4066137541         1.902529070    
H         -3.832219714       -0.5359505327         2.630458306    
CA        -1.999862208        0.4696745733         2.189446419    
HA        -2.018048262         1.297995111         1.478777520    
CB        -2.191023938         1.047982089         3.597783428    
HB        -2.179606937        0.2463025319         4.338139850    
HB        -1.384324122         1.748231449         3.819600861    
HB        -3.141774686         1.580077033         3.655610153    
C        -0.6241859849       -0.2221444021         2.047698991    
O         0.3833211272        0.4474382306         1.801987889    
N        -0.5752102509        -1.557749997         2.137768003    
H         -1.433812569        -2.044289119         2.353523606    
CA        0.6385680303        -2.362991006         1.958852442    
HA         1.402342477        -1.988787657         2.643082280    
CB        0.3064795528        -3.806408790         2.359176144    
HB       -0.4544237502        -4.215633271         1.692443921    
HB       -0.6017049444E-01    -3.832767327         3.386457086    
HB         1.204935384        -4.421699250         2.292832428    
C          1.231108256        -2.295848459        0.5304214251    
O          2.413544542        -2.595838751        0.3403556786    
N         0.4440732569        -1.868948636       -0.4671837689    
H        -0.5253024575        -1.664370638       -0.2578807295    
CA        0.8997234159        -1.638949586        -1.843153685    
HA         1.593755565        -2.436306427        -2.115059240    
CB       -0.3188499175        -1.747722422        -2.769078463    
HB        -1.023271331       -0.9424368153        -2.556670711    
HB        0.1716697349E-02    -1.672221724        -3.808869045    
HB       -0.8131171122        -2.709272451        -2.623503584    
C          1.652293065       -0.2986883754        -2.041120470    
O          2.249839572       -0.8908581777E-01    -3.102404734    
N          1.645873718        0.5858773580        -1.030351138    
H          1.151721812        0.3164867503       -0.1902221886    
CA         2.207695704         1.945382395        -1.039346411    
HA         1.922772034         2.403087918       -0.9020607175E-01
CB         3.744992971         1.852601229        -1.024085470    
HB         4.179531121         2.834023719       -0.8320443017    
HB         4.067711448         1.173680739       -0.2333010505    
HB         4.112391107         1.486274346        -1.983203528    
C          1.635022741         2.885490397        -2.135300676    
O         0.7397736408         2.519401997        -2.907177185    
N          2.121845959         4.134434945        -2.173266008    
H          2.840741721         4.374266456        -1.503551002    
CH         1.696633515         5.173103128        -3.113524816    
HH         2.257371430         6.092844654        -2.935510864    
HH         1.874268561         4.845714652        -4.140097005    
HH        0.6317468852         5.380122915        -2.988113844    
