    52
Energy=    -36.6039294733353    
HH        -1.420834237        -5.017215223       -0.8034748522    
CH        -1.348996564        -3.984531832        -1.142603206    
HH       -0.3094127355        -3.748184138        -1.365432783    
HH        -1.953323848        -3.851771027        -2.039230217    
C         -1.849898568        -3.066007388       -0.5066744163E-01
O         -2.829534107        -2.347362978       -0.2473486520    
N         -1.177780763        -3.088036954         1.099157237    
H        -0.3826634818        -3.705263634         1.171189848    
CA        -1.489085364        -2.235889962         2.250821960    
HA        -2.572561693        -2.225344471         2.385911107    
CB       -0.8714149394        -2.863522477         3.507776100    
HB        0.2156758588        -2.891596788         3.416728263    
HB        -1.138999946        -2.272872975         4.385114099    
HB        -1.248836645        -3.878676933         3.639727864    
C         -1.028917282       -0.7748627724         2.050313812    
O        -0.4498643726E-01   -0.5104298336         1.350965576    
N         -1.724755806        0.1706673358         2.694613638    
H         -2.507537231       -0.1327880875         3.256786906    
CA        -1.466836580         1.616528146         2.646166084    
HA        -2.363962802         2.108630671         3.025985925    
CB       -0.3431269066         1.967711466         3.638141283    
HB        0.5878946058         1.475520868         3.352962814    
HB       -0.6223052101         1.636034413         4.639311123    
HB       -0.1919093530         3.048141902         3.660300147    
C         -1.290595503         2.164201470         1.206965005    
O         -2.261822007         2.222573465        0.4468065686    
N        -0.6937367878E-01     2.553893069        0.8186560245    
H         0.6833154658         2.477383349         1.487753560    
CA        0.2546742800         3.096316220       -0.5069090280    
HA       -0.5421091525         3.782075137       -0.8007844513    
CB         1.547254087         3.913151657       -0.3719921857    
HB         2.376257483         3.261117724       -0.9212323696E-01
HB         1.779725146         4.395107067        -1.322670804    
HB         1.421624967         4.685171899        0.3887291289    
C         0.3655169998         2.031671053        -1.627091660    
O         0.4665448799         2.391663974        -2.804050562    
N         0.3507472177        0.7362929864        -1.279189675    
H         0.2515833388        0.5218480958       -0.2929721466    
CA        0.4547323985       -0.4142149531        -2.189378975    
HA        0.5862908086        -1.287155894        -1.548162064    
CB       -0.8863872669       -0.6115787129        -2.916292935    
HB       -0.8789301283        -1.559638745        -3.455201827    
HB        -1.702568152       -0.6262489706        -2.193482417    
HB        -1.051598828        0.1995375857        -3.626098063    
C          1.701888901       -0.4124026795        -3.114033596    
O          1.664044269       -0.9371984960        -4.233458020    
N          2.814889176        0.1785550668        -2.653385306    
H          2.773770682        0.5804719556        -1.726923784    
CH         4.076191173        0.2862120777        -3.388201765    
HH         3.922805922        0.8404243001        -4.316550171    
HH         4.819067867        0.8105168951        -2.783871321    
HH         4.456569991       -0.7086241236        -3.629302926    
    52
Energy=    -32.2598697288432    
HH        -6.485160196        -3.655993230         1.897264483    
CH        -5.801586605        -3.349693875         1.106398173    
HH        -5.297302751        -4.226781160        0.7026993544    
HH        -6.359612159        -2.852519698        0.3138803574    
C         -4.771450959        -2.400546669         1.676697534    
O         -4.668611812        -1.257460449         1.230185008    
N         -4.010882015        -2.872425698         2.663526309    
H         -4.159362571        -3.825370687         2.960074000    
CA        -2.946461491        -2.108404272         3.321292580    
HA        -3.338194157        -1.116846504         3.557484932    
CB        -2.597390555        -2.796760755         4.648100003    
HB        -2.199226700        -3.794906726         4.458510004    
HB        -1.847647251        -2.211352996         5.182203649    
HB        -3.489332648        -2.876352083         5.271421477    
C         -1.699325051        -1.916204438         2.426316532    
O         -1.401433212        -2.756652324         1.571151861    
N        -0.9582750425       -0.8272630009         2.678406504    
H         -1.280498138       -0.2371478869         3.432858686    
CA        0.2265471672       -0.3427077469         1.951025662    
HA        0.4802482098        0.6189786316         2.401375489    
CB         1.428239831        -1.257496525         2.236830754    
HB         1.264451234        -2.245578865         1.805528405    
HB         1.573060001        -1.355328730         3.313632597    
HB         2.329098630       -0.8265209312         1.797914119    
C         0.6431910617E-02   -0.6466262621E-01    0.4419117665    
O        -0.1659481908       -0.9746758353       -0.3744586329    
N         0.7288648132E-01     1.215684733        0.5428058407E-01
H         0.2117182381         1.923384796        0.7628040705    
CA       -0.1272657608         1.671795794        -1.328506181    
HA       -0.9811441780         1.136614974        -1.748127546    
CB       -0.4868792628         3.162947401        -1.282144419    
HB        0.3455610065         3.738564933       -0.8740782132    
HB       -0.7051409019         3.519759783        -2.289780163    
HB        -1.370211307         3.313124912       -0.6595212925    
C          1.076468861         1.409204601        -2.265163507    
O         0.9149683490         1.426608584        -3.489158608    
N          2.270656534         1.163464304        -1.704169292    
H          2.310745016         1.165286918       -0.6951467701    
CA         3.524998596        0.8743757510        -2.418291301    
HA         4.315737819        0.9214198840        -1.667589061    
CB         3.495807858       -0.5789653988        -2.921507483    
HB         4.475828476       -0.8549310005        -3.312547770    
HB         3.245919936        -1.251486812        -2.099816208    
HB         2.753483393       -0.6874000338        -3.712996128    
C          3.933808924         1.925696880        -3.485696791    
O          4.561801075         1.593557339        -4.498422541    
N          3.578435104         3.200925128        -3.267225077    
H          3.070685676         3.398208175        -2.415813634    
CH         3.865272447         4.320437181        -4.165642855    
HH         3.403344665         4.146903579        -5.139823944    
HH         3.468440039         5.247911033        -3.748153413    
HH         4.943697741         4.427581440        -4.299994065    
    52
Energy=    -36.7091838691009    
HH        -5.475231761        0.7280012980         1.126823358    
CH        -4.637761987        0.4554553355        0.4858148421    
HH        -4.898942445       -0.4264161877       -0.9783826608E-01
HH        -4.407103498         1.281864859       -0.1854223363    
C         -3.432354298        0.1465389936         1.343954877    
O         -2.396097409        0.7988771369         1.215377633    
N         -3.558980858       -0.8530405181         2.215934146    
H         -4.439542964        -1.344755895         2.253979459    
CA        -2.480196718        -1.298359533         3.101263040    
HA        -2.106910738       -0.4281698206         3.645123528    
CB        -3.053163393        -2.279611430         4.132452580    
HB        -3.451482247        -3.162647703         3.630077933    
HB        -2.265945672        -2.587797909         4.822056434    
HB        -3.850064520        -1.797739575         4.700833027    
C         -1.304016559        -1.910582710         2.309251151    
O         -1.504676986        -2.759591590         1.433909383    
N        -0.7640527287E-01    -1.476820621         2.625752725    
H        -0.3882957364E-02   -0.7983806746         3.371851090    
CA         1.181125505        -1.875000500         1.972871382    
HA         1.941548304        -1.185522533         2.343674265    
CB         1.587725813        -3.272377346         2.471541784    
HB        0.8935969440        -4.023407360         2.092762209    
HB         1.580979889        -3.294187865         3.562139319    
HB         2.593844130        -3.511644788         2.124965908    
C          1.217309906        -1.705859010        0.4289432717    
O          2.004076671        -2.367303884       -0.2566915807    
N         0.3831411504       -0.8185269108       -0.1321001215    
H        -0.2506017833       -0.3136187879        0.4725554623    
CA        0.2529163961       -0.6076475830        -1.580556155    
HA        0.3102816867        -1.578616822        -2.075985488    
CB        -1.143851322       -0.3253314786E-01    -1.850496226    
HB        -1.240275710        0.9518333694        -1.390110542    
HB        -1.300994192        0.6213590005E-01    -2.925813460    
HB        -1.905368623       -0.6992900173        -1.443279103    
C          1.361759985        0.2778523256        -2.197547210    
O          1.536817212        0.2767420534        -3.419840076    
N          2.108420366         1.024163583        -1.368960988    
H          1.900382869        0.9598047960       -0.3828509143    
CA         3.209762093         1.919726997        -1.758895884    
HA         3.453510145         2.501505842       -0.8683052667    
CB         4.457220086         1.077771157        -2.077269921    
HB         5.319659968         1.731261009        -2.213917417    
HB         4.664449110        0.3944051137        -1.252693604    
HB         4.298954306        0.5021753692        -2.989902650    
C          2.847612766         2.980322934        -2.833982507    
O          3.694303258         3.383762549        -3.640610074    
N          1.586080462         3.436835022        -2.853701766    
H         0.9507510420         3.064932231        -2.161140356    
CH         1.062684644         4.423785365        -3.799568317    
HH         1.157684748         4.050535037        -4.821416379    
HH        0.8663542735E-02     4.619510684        -3.592910022    
HH         1.618589216         5.359651561        -3.712102173    
