    52
Energy=    -35.9038044712834    
HH        -3.066313394       -0.1485788507         8.027536419    
CH        -3.264927450        0.3473751565E-01     6.972252080    
HH        -4.314208023        0.2948557351         6.838362679    
HH        -2.640066128        0.8546921574         6.620411354    
C         -2.953310011        -1.209894177         6.171298527    
O         -2.540318462        -2.221476273         6.739262846    
N         -3.151499282        -1.130527106         4.856189113    
H         -3.479326566       -0.2502720194         4.485113366    
CA        -2.902302796        -2.209088727         3.892595161    
HA        -2.147200941        -2.883778795         4.300713589    
CB        -4.203276050        -3.003831215         3.701800877    
HB        -4.032856234        -3.838113508         3.020083263    
HB        -4.541021022        -3.399398571         4.660708654    
HB        -4.978460026        -2.357624088         3.286933908    
C         -2.363864460        -1.678323299         2.544561662    
O         -2.572873022       -0.5095799646         2.196714985    
N         -1.706468033        -2.560441666         1.777860293    
H         -1.614111361        -3.499040929         2.139759334    
CA        -1.036123631        -2.283859535        0.4962340572    
HA       -0.5101205103        -3.197963089        0.2146072216    
CB        -2.107725008        -2.055494382       -0.5867099477    
HB        -2.842687962        -2.861312204       -0.5567685283    
HB        -2.613810565        -1.103187797       -0.4247993217    
HB        -1.648982262        -2.047393903        -1.575912198    
C         0.5810141346E-01    -1.183170315        0.5544392389    
O         0.3965178767       -0.6590486244         1.622451547    
N         0.6531725770       -0.8670969069       -0.6017147050    
H         0.3329128127        -1.334632277        -1.438274385    
CA         1.711914434        0.1358133579       -0.7713685690    
HA         1.638376423        0.8748291596        0.2893478946E-01
CB         3.072666463       -0.5674338726       -0.6529570048    
HB         3.180819538        -1.308616658        -1.446438872    
HB         3.877697526        0.1638343225       -0.7371986735    
HB         3.151519840        -1.063922336        0.3151940694    
C          1.585676799        0.8963312504        -2.110455579    
O         0.9548378728        0.4163992306        -3.060011127    
N          2.202464284         2.079817298        -2.193371302    
H          2.715233872         2.406790430        -1.387344332    
CA         2.228871697         2.915805229        -3.398308544    
HA         1.218608710         2.953444802        -3.811076682    
CB         2.616269477         4.344088485        -2.990928215    
HB         2.583042890         4.999129852        -3.862632573    
HB         1.915986979         4.720250474        -2.243560539    
HB         3.626063773         4.354668504        -2.577409990    
C          3.159973040         2.356771223        -4.500391504    
O          4.118772426         1.625770577        -4.220829255    
N          2.891838933         2.726109669        -5.760546526    
H          2.098140159         3.335493446        -5.909231059    
CH         3.662479055         2.314859402        -6.935377099    
HH         3.230981399         2.750778744        -7.838617696    
HH         3.651554478         1.226929371        -7.029698682    
HH         4.697358754         2.650900651        -6.842086126    
    52
Energy=    -35.4496758042466    
HH        -3.512781308        0.9181122129         7.333615131    
CH        -3.604584169        0.8788588992         6.248853081    
HH        -4.637333977         1.074335397         5.962855527    
HH        -2.955488149         1.629890558         5.800305881    
C         -3.200229057       -0.4914653624         5.752419544    
O         -2.837028280        -1.354702051         6.552013297    
N         -3.264042730       -0.6848145833         4.435745037    
H         -3.561275747        0.9213105286E-01     3.863012590    
CA        -2.906904261        -1.927238660         3.740952143    
HA        -2.190670751        -2.482449876         4.349800518    
CB        -4.173517907        -2.783550823         3.589426081    
HB        -3.925982535        -3.732451892         3.111806596    
HB        -4.603405722        -2.987968031         4.570985578    
HB        -4.908759547        -2.258198557         2.977844220    
C         -2.238993543        -1.662706822         2.372460413    
O         -2.423447837       -0.5950368039         1.775255729    
N         -1.497733563        -2.660721316         1.869731944    
H         -1.433688509        -3.503751277         2.422608047    
CA       -0.7018825714        -2.628307350        0.6311010989    
HA       -0.1435527835        -3.565581081        0.5938863719    
CB        -1.658443276        -2.651651861       -0.5762189492    
HB        -2.387268033        -3.454681555       -0.4564491212    
HB        -2.184576434        -1.700297846       -0.6617280756    
HB        -1.100875773        -2.829821596        -1.496182864    
C         0.3730593568        -1.508788946        0.5723317150    
O         0.5860322193       -0.7618836144         1.534817614    
N          1.089655584        -1.424775777       -0.5548616490    
H         0.8609883756        -2.064377960        -1.301917759    
CA         2.152628626       -0.4477882892       -0.8231155833    
HA         2.376817195        0.1030256711        0.9208686642E-01
CB         3.424082682        -1.212437737        -1.216909441    
HB         3.255684820        -1.768437440        -2.140577904    
HB         4.246181408       -0.5117289244        -1.369203027    
HB         3.698937109        -1.908322180       -0.4228440498    
C          1.745062228        0.5939016047        -1.888997126    
O         0.8523322499        0.3538575148        -2.710803910    
N          2.417342931         1.749832121        -1.889423367    
H          3.147313765         1.876121663        -1.203406272    
CA         2.200709743         2.832036381        -2.855454029    
HA         1.124878961         2.986875028        -2.960434576    
CB         2.800710382         4.123262225        -2.282059588    
HB         2.597887575         4.956499674        -2.956321786    
HB         2.353374010         4.341788365        -1.311187755    
HB         3.880392352         4.015262194        -2.166222575    
C          2.762314788         2.508214772        -4.260369632    
O          3.695078423         1.708638921        -4.410246622    
N          2.208266446         3.155580797        -5.294895974    
H          1.458015117         3.803236437        -5.092220166    
CH         2.609189873         2.996153793        -6.693850435    
HH         1.996438977         3.633215997        -7.334745917    
HH         2.481649173         1.957151855        -7.005000857    
HH         3.657442391         3.275954877        -6.818266014    
    52
Energy=    -35.9944802327804    
HH        -3.778216692         2.018712360         6.210071671    
CH        -3.802267790         1.697041902         5.169577985    
HH        -4.825630428         1.738172314         4.798611722    
HH        -3.172368785         2.353155627         4.570152685    
C         -3.289519964        0.2780892380         5.062824870    
O         -2.925196685       -0.3237098724         6.073537599    
N         -3.262757470       -0.2493878311         3.839659557    
H         -3.570004113        0.3319122373         3.073047279    
CA        -2.792599013        -1.599101927         3.506322873    
HA        -2.083417081        -1.927457562         4.268684474    
CB        -3.995739352        -2.554372457         3.526812952    
HB        -3.664983876        -3.573485360         3.322327915    
HB        -4.471539338        -2.531597373         4.508212594    
HB        -4.721996078        -2.256863099         2.768759473    
C         -2.059667822        -1.645680844         2.146323380    
O         -2.270426247       -0.7826321647         1.285468258    
N         -1.232042950        -2.682907543         1.952508414    
H         -1.153503155        -3.349513967         2.707474678    
CA       -0.3630124931        -2.911307625        0.7857849162    
HA        0.2451891638        -3.787736831         1.017298060    
CB        -1.237172470        -3.303956848       -0.4200098280    
HB        -1.927556671        -4.099078670       -0.1345207080    
HB        -1.807231019        -2.443236841       -0.7712349160    
HB       -0.6123443236        -3.668765902        -1.235744678    
C         0.6528024456        -1.774437933        0.4913971513    
O         0.7477922511       -0.7786810264         1.219049240    
N          1.460846679        -1.946676919       -0.5611836114    
H          1.347474497        -2.782773140        -1.115186828    
CA         2.470164341       -0.9766120771       -0.9986875583    
HA         3.023571309       -0.6380408765       -0.1203012209    
CB         3.463683779        -1.690695923        -1.925280158    
HB         2.952265744        -2.042723518        -2.822687445    
HB         4.257514564        -1.001656146        -2.217193491    
HB         3.910461957        -2.540594349        -1.407108280    
C          1.853694334        0.2724279038        -1.670214132    
O         0.7549233956        0.2211121858        -2.236393834    
N          2.580216646         1.394530112        -1.632761241    
H          3.478321834         1.365159123        -1.172547556    
CA         2.180891543         2.658830795        -2.259631853    
HA         1.132482607         2.844602479        -2.017354759    
CB         3.007904347         3.792791682        -1.638139436    
HB         2.685160058         4.751930454        -2.045495325    
HB         2.866083919         3.806436456       -0.5563979377    
HB         4.066410324         3.650378936        -1.861932831    
C          2.303414802         2.632647923        -3.801804260    
O          3.097794656         1.872315702        -4.369877094    
N          1.530285614         3.490074833        -4.482519175    
H         0.9146223485         4.088778834        -3.947804043    
CH         1.512368850         3.625052235        -5.940140999    
HH        0.7921440205         4.389906349        -6.237348197    
HH         1.229294527         2.676643929        -6.401655149    
HH         2.501413554         3.912980814        -6.302751204    
