    52
Energy=    -38.6822893616481    
HH        -6.158268054         1.855381363         3.896574176    
CH        -5.087870669         1.869699649         3.694758808    
HH        -4.846175294         2.727657390         3.068604785    
HH        -4.540404504         1.940116611         4.633851122    
C         -4.687513553        0.5998579993         2.977258701    
O         -5.535398697       -0.2535842856         2.714452845    
N         -3.397791432        0.4800462711         2.664836673    
H         -2.779574496         1.231000821         2.937168048    
CA        -2.792640031       -0.6686522219         1.980387107    
HA        -3.404569420        -1.554683353         2.160745794    
CB        -2.786554744       -0.3885582986        0.4695562959    
HB        -2.174568763        0.4888469579        0.2542517461    
HB        -2.380525653        -1.246653872       -0.6762032369E-01
HB        -3.804658590       -0.2090650827        0.1212745649    
C         -1.371748403       -0.9786072531         2.501191728    
O        -0.6994957127       -0.1165286470         3.078109371    
N        -0.8984085149        -2.209006046         2.270340433    
H         -1.500988795        -2.870384196         1.799700007    
CA        0.4208887039        -2.684650600         2.710358587    
HA        0.5846329855        -2.346732331         3.735322442    
CB        0.3847766974        -4.218775611         2.723261142    
HB        0.2333924162        -4.599374413         1.711816807    
HB       -0.4252831393        -4.566519207         3.366115536    
HB         1.328624133        -4.605291658         3.110386024    
C          1.603011992        -2.151244681         1.864515217    
O          2.757158836        -2.230744595         2.298108800    
N          1.328821484        -1.605749562        0.6732523796    
H         0.3606241837        -1.571130126        0.3895328208    
CA         2.308022029        -1.015358292       -0.2457809334    
HA         3.173338113       -0.6707887601        0.3239214128    
CB         2.776426875        -2.103572427        -1.223632433    
HB         1.932671594        -2.463672718        -1.814462118    
HB         3.534136973        -1.698333251        -1.895618173    
HB         3.209712330        -2.938311872       -0.6708753309    
C          1.733090685        0.2070034663       -0.9956869590    
O         0.5123585624        0.3656103167        -1.114335311    
N          2.614974180         1.065197571        -1.518654086    
H          3.598377250        0.8686261335        -1.401145156    
CA         2.249060049         2.251419913        -2.299819749    
HA         1.439691668         2.767568662        -1.779289156    
CB         3.454886607         3.200339360        -2.337594000    
HB         3.186663101         4.118291005        -2.862451169    
HB         3.759770059         3.454515295        -1.321282256    
HB         4.288950794         2.725468257        -2.856848785    
C          1.741500457         1.905500143        -3.719919416    
O          2.087970749        0.8625190447        -4.289067873    
N         0.9363724718         2.801730672        -4.307140990    
H         0.7072823334         3.636617590        -3.783823166    
CH        0.3660764113         2.662382259        -5.648235964    
HH       -0.2487084211         1.761477512        -5.703107971    
HH       -0.2563725874         3.528082797        -5.883127034    
HH         1.164255050         2.591016102        -6.390135025    
    52
Energy=    -31.6718734575567    
HH        -5.050468201         2.737044256         4.667775724    
CH        -4.292476360         2.489569337         3.925561437    
HH        -4.560498528         2.934497421         2.968079327    
HH        -3.326408528         2.876268819         4.247650869    
C         -4.202600900        0.9877843346         3.770092719    
O         -4.930258068        0.2537323364         4.439474824    
N         -3.310259756        0.5380547912         2.888804837    
H         -2.750313728         1.222045584         2.400093431    
CA        -3.048453040       -0.8749622510         2.589553603    
HA        -3.325803044        -1.479109721         3.455678649    
CB        -3.935710396        -1.295247567         1.407365201    
HB        -3.678441461       -0.7127465633        0.5212288132    
HB        -3.791363759        -2.354698315         1.191285677    
HB        -4.985453155        -1.128978475         1.653344479    
C         -1.555149187        -1.147299456         2.296681999    
O        -0.8119055830       -0.2273748746         1.942481385    
N         -1.150747704        -2.418697176         2.442110869    
H         -1.864175984        -3.064908418         2.748895466    
CA        0.1660968747        -3.032455259         2.185723726    
HA        0.4900149517        -3.482854883         3.125689619    
CB       -0.3272374498E-01    -4.189562287         1.192889777    
HB       -0.4344641350        -3.819194954        0.2485253563    
HB       -0.7286208064        -4.918891054         1.610149265    
HB        0.9217836702        -4.685124176         1.008399595    
C          1.318653055        -2.088078782         1.760754697    
O          2.177642620        -1.752965488         2.583701630    
N          1.347214730        -1.672634665        0.4882231252    
H         0.5975840830        -1.973833112       -0.1174576458    
CA         2.325776583       -0.7420244630       -0.8310330108E-01
HA         2.718491009       -0.1044456253        0.7113841413    
CB         3.490330368        -1.553478121       -0.6702822432    
HB         3.129042011        -2.199136051        -1.472296626    
HB         4.247860776       -0.8784939864        -1.070851787    
HB         3.945109061        -2.167870415        0.1079772706    
C          1.692352925        0.1830963956        -1.145774795    
O         0.6711946389       -0.1526254561        -1.758072990    
N          2.314186580         1.342778615        -1.383518098    
H          3.154689265         1.547942577       -0.8630840166    
CA         1.884355004         2.319511252        -2.389629075    
HA        0.8033039060         2.446807951        -2.302899448    
CB         2.537257930         3.670532282        -2.066396789    
HB         2.183857485         4.428891030        -2.766432422    
HB         2.272464763         3.978459010        -1.053715487    
HB         3.622552302         3.590920359        -2.147606960    
C          2.183491166         1.865043416        -3.838064106    
O          3.098631431         1.069253355        -4.085137610    
N          1.423453273         2.396487537        -4.805639315    
H         0.7026487368         3.049383322        -4.527138237    
CH         1.560360592         2.103609860        -6.233465541    
HH         1.412639273         1.036721155        -6.413830408    
HH        0.8167954173         2.663327477        -6.804327844    
HH         2.556461887         2.385928922        -6.580852769    
    52
Energy=    -35.9944802327736    
HH        -5.149998913         2.934755531         4.666882896    
CH        -4.928628457         2.358840695         3.769110837    
HH        -5.853549949         2.147846262         3.233778840    
HH        -4.259017885         2.928564484         3.125989423    
C         -4.264588930         1.054659746         4.151075210    
O         -4.055500386        0.7929121157         5.336066349    
N         -3.935716606        0.2434072752         3.146687798    
H         -4.136986463        0.5564535773         2.207807026    
CA        -3.273874812        -1.058860763         3.287945848    
HA        -2.705838557        -1.070262474         4.220231460    
CB        -4.353367495        -2.149006043         3.370329813    
HB        -4.935801745        -2.168562513         2.447836661    
HB        -3.886878589        -3.123958694         3.517502665    
HB        -5.019291672        -1.949658693         4.211076633    
C         -2.277892828        -1.338253012         2.139505078    
O         -2.394356994       -0.7654727159         1.049228730    
N         -1.327931498        -2.252157425         2.385916483    
H         -1.338393129        -2.684445885         3.298891798    
CA       -0.2205551150        -2.635225650         1.493952056    
HA        0.4127261013        -3.320618961         2.060367677    
CB       -0.7860837041        -3.450426619        0.3158625584    
HB        -1.356205431        -2.804726685       -0.3528657552    
HB        -1.436507072        -4.242081183        0.6908100133    
HB        0.2560187338E-01    -3.911511251       -0.2475970126    
C         0.7141407300        -1.469952333         1.070279253    
O         0.5577868246       -0.3192204364         1.496192398    
N          1.733174933        -1.779593203        0.2602052793    
H          1.820098351        -2.736416619       -0.4925065754E-01
CA         2.707562369       -0.8110591185       -0.2532813358    
HA         3.033036747       -0.1797317960        0.5761428808    
CB         3.936078019        -1.577807839       -0.7616278233    
HB         3.656728539        -2.220439932        -1.598168044    
HB         4.699231783       -0.8733476284        -1.095527011    
HB         4.350988690        -2.189407799        0.4101455776E-01
C          2.118502601        0.1168046291        -1.341013619    
O          1.169313361       -0.2436802977        -2.047823874    
N          2.705253725         1.308481831        -1.495866178    
H          3.488803850         1.534376222       -0.9006576901    
CA         2.316985792         2.295346554        -2.508896059    
HA         1.227929897         2.374893905        -2.509195090    
CB         2.881182322         3.662431849        -2.098006349    
HB         2.553423661         4.425461060        -2.805403384    
HB         2.520908818         3.929456618        -1.103338238    
HB         3.971928869         3.630535931        -2.090630516    
C          2.753713768         1.896113295        -3.938537511    
O          3.719798157         1.146225161        -4.128800275    
N          2.053438169         2.423819307        -4.952156218    
H          1.284472038         3.038064746        -4.718058713    
CH         2.319917541         2.178649703        -6.370634941    
HH         2.234032874         1.112305674        -6.590040814    
HH         1.602203327         2.723706124        -6.986960784    
HH         3.328002801         2.511773073        -6.626352330    
