    52
Energy=    -37.2881753465253    
HH        -4.338828391       -0.7799839349         5.565855801    
CH        -3.280204269        -1.028047862         5.498911663    
HH        -2.965556840        -1.532592464         6.411755176    
HH        -2.701133574       -0.1146123073         5.368778867    
C         -3.055481680        -1.936580811         4.311826104    
O         -2.577871097        -3.059272086         4.472603727    
N         -3.391121870        -1.447507510         3.117868219    
H         -3.791985738       -0.5208215100         3.084506934    
CA        -3.289237321        -2.196838263         1.858727406    
HA        -3.651052628        -3.211854042         2.032694441    
CB        -4.226904329        -1.532135065        0.8412173016    
HB        -4.225835694        -2.103376884       -0.8827051695E-01
HB        -3.894763771       -0.5138242807        0.6326251422    
HB        -5.244280014        -1.507028263         1.234584687    
C         -1.849712490        -2.319288243         1.304232188    
O         -1.600843787        -3.150871187        0.4261944523    
N        -0.9084858755        -1.501464787         1.800994842    
H         -1.197159447       -0.8628774413         2.528725321    
CA        0.5056531123        -1.453976284         1.394414354    
HA        0.9205464013       -0.5532824869         1.850234077    
CB         1.253781193        -2.640671002         2.025503729    
HB        0.9176564364        -3.577196781         1.579118396    
HB         1.067435462        -2.667734186         3.099956626    
HB         2.326401356        -2.532473929         1.859994503    
C         0.7404507673        -1.271366654       -0.1289180396    
O          1.732822806        -1.754689084       -0.6839144493    
N        -0.1762572546       -0.5736985461       -0.8132159751    
H        -0.9668595483       -0.2099673690       -0.3007479428    
CA       -0.1654531216       -0.3818553591        -2.269492089    
HA        0.2039868285        -1.297153169        -2.735398682    
CB        -1.618771753       -0.1853864853        -2.722378851    
HB        -2.026053605        0.7306498918        -2.291452239    
HB        -1.658627266       -0.1144209179        -3.810216212    
HB        -2.225109017        -1.035265751        -2.405013329    
C         0.7487637947        0.7689727834        -2.756016082    
O          1.021533190        0.8757786969        -3.956490321    
N          1.223525635         1.630979704        -1.848310430    
H         0.9688556632         1.485740145       -0.8834788100    
CA         2.106536198         2.760726192        -2.156004285    
HA         1.709393534         3.274884251        -3.033676567    
CB         2.060337573         3.747549127       -0.9812619572    
HB         2.662341085         4.627122333        -1.213698973    
HB         1.031800425         4.064718571       -0.8023443672    
HB         2.454997451         3.275666065       -0.7993215669E-01
C          3.553888846         2.326617739        -2.488056427    
O          4.028240831         1.275439405        -2.039482506    
N          4.270871978         3.158579734        -3.256310691    
H          3.818853553         4.005711265        -3.574829202    
CH         5.657948730         2.932975689        -3.666602952    
HH         5.734885291         2.004121189        -4.235738430    
HH         6.003279405         3.758578354        -4.292048267    
HH         6.302803133         2.863303612        -2.788023206    
    52
Energy=    -31.3803116682112    
HH        -5.038883605       -0.5940724351         5.074842397    
CH        -3.978402782       -0.8148167691         5.190406528    
HH        -3.803801008        -1.263489766         6.167677643    
HH        -3.404531021        0.1070833024         5.104426490    
C         -3.548278203        -1.775246809         4.105202186    
O         -3.079980836        -2.874279632         4.400533863    
N         -3.698287327        -1.356798098         2.848306844    
H         -4.107266945       -0.4448146325         2.701418652    
CA        -3.381118151        -2.165466685         1.663916038    
HA        -3.746045338        -3.180203300         1.832949644    
CB        -4.156534922        -1.579554656        0.4757241776    
HB        -3.995246582        -2.196663939       -0.4093895757    
HB        -3.815462662       -0.5640852052        0.2676853357    
HB        -5.224098710        -1.563334056        0.7003797321    
C         -1.869167266        -2.275160301         1.352970401    
O         -1.466175885        -3.143053528        0.5727351481    
N         -1.036176204        -1.406777581         1.947541485    
H         -1.450603010       -0.7400150897         2.583490811    
CA        0.4239451045        -1.341511373         1.771231558    
HA        0.7424975060       -0.4069703190         2.236359329    
CB         1.082397578        -2.472255162         2.579988565    
HB        0.8406315320        -3.439895398         2.138894565    
HB        0.7252314835        -2.448022447         3.610407794    
HB         2.165445991        -2.343254670         2.582975643    
C         0.8990239121        -1.232714276        0.2978114098    
O          1.978590367        -1.713911914       -0.6193575586E-01
N         0.9307121381E-01   -0.5979869482       -0.5643308403    
H        -0.7785022801       -0.2312792146       -0.2091683794    
CA        0.3364065554       -0.4935325829        -2.009393667    
HA        0.6900707773        -1.462014560        -2.367869541    
CB        -1.010813683       -0.2091059122        -2.687476808    
HB        -1.397620123        0.7587112672        -2.364250421    
HB       -0.8815188635       -0.1959881274        -3.770622604    
HB        -1.728550592       -0.9898698160        -2.430671530    
C          1.407790287        0.5522488436        -2.405342263    
O          1.905246755        0.5049282444        -3.533186778    
N          1.738670129         1.476553834        -1.488313035    
H          1.226616810         1.417440270       -0.6210350168    
CA         2.773445672         2.526097112        -1.528584166    
HA         2.268005452         3.486132755        -1.407830318    
CB         3.666441535         2.331649941       -0.2927300591    
HB         4.422076447         3.117762330       -0.2579916028    
HB         3.064286456         2.385342138        0.6153688445    
HB         4.162633552         1.360686409       -0.3356227794    
C          3.615953513         2.621319564        -2.827571837    
O          4.612621648         1.907809788        -3.002835717    
N          3.230407632         3.536648737        -3.728440650    
H          2.406838766         4.083779486        -3.515507379    
CH         3.900963635         3.787414675        -5.005214485    
HH         3.897886688         2.880879237        -5.614125940    
HH         3.385011839         4.579845778        -5.550961008    
HH         4.934857461         4.093811291        -4.832842928    
    52
Energy=    -36.1865992231626    
HH        -5.344574439       -0.1155021243         4.517388243    
CH        -4.322710375       -0.3901483870         4.776359388    
HH        -4.299317720       -0.7960991859         5.787056689    
HH        -3.685386413        0.4916345128         4.722529709    
C         -3.823123320        -1.429296034         3.798766995    
O         -3.465575824        -2.536270754         4.200220747    
N         -3.789432359        -1.069582009         2.515466916    
H         -4.118470394       -0.1446848066         2.277035376    
CA        -3.379840283        -1.956211363         1.418453335    
HA        -3.826683800        -2.938037744         1.585133788    
CB        -3.963005654        -1.389938207        0.1162912431    
HB        -3.732690798        -2.060912946       -0.7125714971    
HB        -3.534901428       -0.4080559874       -0.9208639846E-01
HB        -5.046988587        -1.300674241        0.2025420950    
C         -1.851054362        -2.168704773         1.307285403    
O         -1.410422876        -3.098208827        0.6244336768    
N         -1.044758268        -1.319370725         1.963042218    
H         -1.491633646       -0.5973974378         2.510583664    
CA        0.4271711813        -1.346915197         1.970300690    
HA        0.7442138982       -0.4089505836         2.429493531    
CB        0.9076190446        -2.469443073         2.905944828    
HB        0.6613720499        -3.443511593         2.481801715    
HB        0.4280879194        -2.370656535         3.880732205    
HB         1.987974208        -2.402701651         3.040179188    
C          1.086585096        -1.343056533        0.5653999293    
O          2.169244297        -1.904238228        0.3667365619    
N         0.4349996648       -0.7095860126       -0.4193328812    
H        -0.4473258378       -0.2730532263       -0.1930927048    
CA        0.8578976724       -0.7000364397        -1.825769830    
HA         1.201504962        -1.702367945        -2.088025922    
CB       -0.3789574326       -0.3920783732        -2.680691955    
HB       -0.7523410894        0.6084106611        -2.456206723    
HB       -0.1169677692       -0.4443867842        -3.738443716    
HB        -1.162293389        -1.124271317        -2.478149092    
C          2.021513880        0.2714959705        -2.136801476    
O          2.661698659        0.1440125908        -3.184890514    
N          2.300450431         1.230594635        -1.240555687    
H          1.729735656         1.258201791       -0.4078750850    
CA         3.369067172         2.237467695        -1.347597944    
HA         3.180965366         2.960812146       -0.5523541287    
CB         4.719304605         1.577999131        -1.018467545    
HB         5.494453399         2.341204734       -0.9398540242    
HB         4.652239483         1.049430491       -0.6663905697E-01
HB         4.993535667        0.8719331026        -1.803019618    
C          3.355326109         3.077373460        -2.653796651    
O          4.406106003         3.506794940        -3.145491340    
N          2.164815521         3.315042703        -3.225135727    
H          1.348891931         2.936351278        -2.764198992    
CH         1.960322283         4.073306906        -4.460430829    
HH         2.487813431         3.592448965        -5.286897782    
HH        0.8963654177         4.118987084        -4.701029208    
HH         2.339181358         5.090846047        -4.343771806    
