    52
Energy=    -37.8121138206550    
HH        -5.735655671        0.1189917714         2.163342795    
CH        -5.016897127        0.1496737170E-01     1.351499479    
HH        -5.305104922       -0.8214860744        0.7160138465    
HH        -4.996314452        0.9307395733        0.7618828042    
C         -3.645259546       -0.2476650568         1.929866731    
O         -2.716660529        0.5275491774         1.700359916    
N         -3.509941459        -1.344164431         2.674785386    
H         -4.318422233        -1.933276743         2.808636260    
CA        -2.243979537        -1.759448616         3.283634663    
HA        -1.850402319       -0.9169451632         3.856032331    
CB        -2.515194965        -2.903975213         4.269020550    
HB        -2.923951896        -3.766432415         3.739990370    
HB        -1.584294295        -3.195226884         4.757729730    
HB        -3.225350409        -2.578041095         5.030434416    
C         -1.195698819        -2.147748118         2.217920112    
O         -1.487318972        -2.915124963         1.294108225    
N         0.2644437117E-01    -1.616001574         2.355635133    
H         0.1831848131        -1.017775137         3.155463863    
CA         1.161466172        -1.798950560         1.436811838    
HA         1.915065235        -1.071824450         1.744213699    
CB         1.781838543        -3.186918232         1.671843495    
HB         1.096853039        -3.966469523         1.336564326    
HB         1.991922495        -3.325090793         2.733296359    
HB         2.717327707        -3.273615220         1.117807983    
C         0.8768173975        -1.463454582       -0.5327653567E-01
O          1.561316304        -1.965149782       -0.9512385491    
N        -0.1215191972       -0.6125876742       -0.3312078632    
H        -0.6609676367       -0.2451623011        0.4407283299    
CA       -0.5474855815       -0.2481052236        -1.689817286    
HA       -0.4367033418        -1.122997360        -2.332941689    
CB        -2.041423874        0.9897732855E-01    -1.639207696    
HB        -2.198072128        0.9930046494        -1.034085307    
HB        -2.409670401        0.2859486570        -2.648774358    
HB        -2.602581249       -0.7325076191        -1.210201063    
C         0.2830550160        0.8884155075        -2.333868569    
O         0.1890484430         1.112164697        -3.545510340    
N          1.092084361         1.608504880        -1.546885528    
H          1.126554159         1.373120371       -0.5669453025    
CA         1.948937736         2.703060640        -2.013926884    
HA         1.359872712         3.337394284        -2.679518109    
CB         2.354087583         3.553820122       -0.8022944897    
HB         2.942368032         4.411008130        -1.132805395    
HB         1.462799317         3.917999276       -0.2889859353    
HB         2.952085509         2.958893245       -0.1099869517    
C          3.180185495         2.211102442        -2.811108028    
O          3.660296660         1.086380280        -2.622053971    
N          3.713241321         3.072824163        -3.688430598    
H          3.272957230         3.979153330        -3.778584321    
CH         4.884504441         2.800281809        -4.523343209    
HH         4.695154806         1.937819871        -5.165924461    
HH         5.106969198         3.665111311        -5.151541960    
HH         5.752432765         2.588911714        -3.895158241    
    52
Energy=    -31.8875093200622    
HH        -5.844367944        0.1088345438         1.342057699    
CH        -5.000540681       -0.3982469453E-01    0.6694642007    
HH        -5.168074653       -0.9325762695        0.6822597994E-01
HH        -4.896895275        0.8257075170        0.1614224502E-01
C         -3.738839575       -0.2160304494         1.483093826    
O         -2.797152633        0.5648766687         1.343994018    
N         -3.711255979        -1.245322569         2.328853785    
H         -4.521629490        -1.844921983         2.377668192    
CA        -2.557326687        -1.573607336         3.169443431    
HA        -2.276730166       -0.6765465554         3.725241287    
CB        -2.970772055        -2.641883536         4.190385139    
HB        -3.272833608        -3.555881808         3.676420750    
HB        -2.129563570        -2.865423052         4.848144280    
HB        -3.802332588        -2.276113249         4.794563017    
C         -1.340651535        -2.016620024         2.327415337    
O         -1.465075830        -2.855337004         1.428310571    
N        -0.1637630775        -1.451465013         2.628889484    
H        -0.1500550574       -0.7931953104         3.396166116    
CA         1.113371928        -1.680280854         1.934119537    
HA         1.798210838       -0.9176630692         2.309042070    
CB         1.693160968        -3.034397815         2.377704616    
HB         1.081094081        -3.850109389         1.991276802    
HB         1.718576379        -3.088830943         3.466885512    
HB         2.710513540        -3.143883190         2.000018312    
C          1.087880444        -1.462815508        0.3961019159    
O          1.926091979        -2.008789905       -0.3290349976    
N         0.1432783114       -0.6605242869       -0.1158490906    
H        -0.5289302544       -0.2518568099        0.5191413483    
CA       -0.4575679060E-01   -0.4186115334        -1.553341467    
HA        0.8849689211E-01    -1.364917188        -2.080640185    
CB        -1.497506003        0.2910474572E-01    -1.769306238    
HB        -1.673374648        0.9846429870        -1.273008727    
HB        -1.692324542        0.1427113211        -2.836541559    
HB        -2.181253909       -0.7197606814        -1.366929830    
C         0.9591968925        0.5855442845        -2.169561628    
O          1.092973154        0.6260845839        -3.395221997    
N          1.638349067         1.378300594        -1.323923562    
H          1.402179080         1.262155290       -0.3499443919    
CA         2.714901165         2.349686920        -1.590700859    
HA         2.367274567         3.324296360        -1.242826443    
CB         3.909521481         1.958503596       -0.7061324963    
HB         4.716608688         2.680525673       -0.8382896743    
HB         3.611902888         1.955277865        0.3434141109    
HB         4.270486249        0.9653105014       -0.9783323612    
C          3.139877050         2.525928054        -3.072118215    
O          3.962981748         1.766952912        -3.600900748    
N          2.598652532         3.558897371        -3.733994652    
H          1.934385864         4.136512773        -3.235930463    
CH         2.882439513         3.899050127        -5.129141770    
HH         2.608073737         3.066714417        -5.780700097    
HH         2.310253254         4.780746443        -5.424448671    
HH         3.946274558         4.110824279        -5.255363463    
    52
Energy=    -36.7091838691034    
HH        -5.592296663        0.4211419385        0.5716096104    
CH        -4.682466253        0.1604864895        0.3235438321E-01
HH        -4.830708306       -0.7798647461       -0.4971051672    
HH        -4.442718647        0.9473055995       -0.6818949863    
C         -3.546087980        0.4747882421E-02     1.016849810    
O         -2.546032351        0.7173252014        0.9272517701    
N         -3.690361889       -0.9315071232         1.953947957    
H         -4.537440608        -1.480213468         1.954209910    
CA        -2.673651227        -1.229818574         2.965482041    
HA        -2.409536643       -0.2961659167         3.466374229    
CB        -3.277542251        -2.167372938         4.019429585    
HB        -3.569618632        -3.112401066         3.558555991    
HB        -2.540796601        -2.365036766         4.799416108    
HB        -4.153567038        -1.701223358         4.472853632    
C         -1.391420125        -1.815784880         2.334588435    
O         -1.454133587        -2.741512559         1.518255669    
N        -0.2292737537        -1.272860373         2.721888140    
H        -0.2708080901       -0.5357848267         3.412683010    
CA         1.107017876        -1.629506780         2.218586098    
HA         1.783588952       -0.8613193602         2.597079354    
CB         1.553058680        -2.952088488         2.865488911    
HB        0.9470269900        -3.777389009         2.490069708    
HB         1.444940965        -2.890650610         3.949214033    
HB         2.600565522        -3.145085118         2.630713408    
C          1.277723403        -1.577081894        0.6752962883    
O          2.166181183        -2.231530033        0.1194664376    
N         0.4452894418       -0.7969286008       -0.2924611557E-01
H        -0.2735250643       -0.2934882821        0.4727740523    
CA        0.4390061051       -0.7075062577        -1.496017281    
HA        0.6046047029        -1.707056602        -1.902217329    
CB       -0.9599076780       -0.2555399440        -1.935734206    
HB        -1.161862273        0.7518708701        -1.568899268    
HB        -1.020699559       -0.2549987919        -3.024893201    
HB        -1.712355608       -0.9415631148        -1.543951834    
C          1.542352507        0.2046719779        -2.083281887    
O          1.831563746        0.1223086039        -3.280870822    
N          2.158473984         1.063497736        -1.256329664    
H          1.862934574         1.060299734       -0.2906791254    
CA         3.232322291         2.002557540        -1.619720842    
HA         3.353443396         2.666752210       -0.7622790043    
CB         4.555366538         1.229495063        -1.755114487    
HB         5.383421916         1.930241420        -1.868264430    
HB         4.727087492        0.6278218211       -0.8616043620    
HB         4.520855932        0.5758368729        -2.627351298    
C          2.906252048         2.949174515        -2.806911487    
O          3.797758526         3.348758574        -3.565756086    
N          1.625669422         3.311985978        -2.976416266    
H         0.9528928554         2.950047639        -2.314624158    
CH         1.131914422         4.183803833        -4.043570111    
HH         1.346419806         3.741015292        -5.018475251    
HH        0.5278141803E-01     4.319364862        -3.948324632    
HH         1.616296432         5.160767628        -3.984905272    
