    52
Energy=    -38.1634053150370    
HH        -4.813934855       -0.9138653183E-01   -0.8569190052    
CH        -4.953843335       -0.8727510682       -0.1108543687    
HH        -5.962104792       -0.8123986367        0.2969340987    
HH        -4.806479391        -1.848356256       -0.5724006731    
C         -3.951894081       -0.6933374037         1.006838732    
O         -3.144797251        0.2358118914        0.9728325233    
N         -3.995259503        -1.583698364         1.997217489    
H         -4.682276246        -2.321198085         1.946034745    
CA        -3.078664350        -1.571867484         3.139922535    
HA        -3.096512705       -0.5717917947         3.578003925    
CB        -3.591815723        -2.553131724         4.202054844    
HB        -3.601513439        -3.568308675         3.801923343    
HB        -2.939463763        -2.521836020         5.075955640    
HB        -4.601973609        -2.275732449         4.506924607    
C         -1.625770602        -1.883462274         2.718110736    
O         -1.376848181        -2.816786057         1.946917408    
N        -0.6691360012        -1.102382243         3.237664224    
H        -0.9610322549       -0.3779882350         3.879505798    
CA        0.7709744982        -1.182215141         2.944477491    
HA         1.213481258       -0.2812562379         3.372805109    
CB         1.377937811        -2.367905653         3.713927177    
HB         1.014716811        -3.309470531         3.300645468    
HB         1.102250831        -2.307397906         4.767591139    
HB         2.465553371        -2.342010150         3.636628257    
C          1.151162617        -1.127657870         1.439036535    
O          2.215661114        -1.614776302         1.040927868    
N         0.2964855679       -0.5382738521        0.5927866306    
H        -0.5561285552       -0.1520155374        0.9710464915    
CA        0.5215886255       -0.3994053621       -0.8494885527    
HA        0.9028286962        -1.349731840        -1.228868483    
CB       -0.8274952400       -0.1386096589        -1.532985440    
HB        -1.244013968        0.8092588502        -1.188721003    
HB       -0.6923468094       -0.9430232100E-01    -2.614473218    
HB        -1.524089698       -0.9451828607        -1.299623440    
C          1.564378184        0.6886810863        -1.195136512    
O          1.789685212         1.631181159       -0.4259017819    
N          2.186586344        0.5711903809        -2.373013258    
H          1.944190227       -0.2109902581        -2.963520291    
CA         3.166855624         1.532072719        -2.889388101    
HA         3.863065098         1.776418395        -2.084429142    
CB         3.970865868        0.8538873881        -4.007279590    
HB         4.748351961         1.529883596        -4.365880181    
HB         4.443617392       -0.5309563262E-01    -3.627343229    
HB         3.312752773        0.5970261013        -4.838969793    
C          2.521931624         2.856244167        -3.363332742    
O          1.343172092         2.898101627        -3.738240847    
N          3.309520696         3.940633049        -3.372933737    
H          4.265794388         3.825496395        -3.063582878    
CH         2.889177478         5.276682544        -3.798947431    
HH         2.060829215         5.625371174        -3.178576314    
HH         3.719593146         5.979219943        -3.704566986    
HH         2.564386128         5.253549746        -4.841335817    
    52
Energy=    -37.4022045318854    
HH        -5.590537516        0.2715170443E-01   -0.1760544507    
CH        -4.974413798       -0.8685010747       -0.1110833845    
HH        -5.613820703        -1.729738565        0.7965304365E-01
HH        -4.439863047        -1.020017257        -1.047765866    
C         -3.969255257       -0.6944681206         1.006401766    
O         -3.160329158        0.2323272507        0.9606798427    
N         -4.006090628        -1.575906018         2.006045343    
H         -4.693038282        -2.314063839         1.968572913    
CA        -3.082674143        -1.552050023         3.143265381    
HA        -3.096511518       -0.5467642732         3.569432646    
CB        -3.591502836        -2.519466219         4.220101137    
HB        -3.604556264        -3.539485132         3.832564638    
HB        -2.934541593        -2.478333974         5.090140267    
HB        -4.599676496        -2.236986863         4.526890146    
C         -1.632189860        -1.870873097         2.718388991    
O         -1.389164629        -2.806048902         1.947564756    
N        -0.6707751395        -1.094515365         3.236234467    
H        -0.9581699471       -0.3682574850         3.878012176    
CA        0.7689526735        -1.183562398         2.943639215    
HA         1.216769849       -0.2848294422         3.371122753    
CB         1.368272847        -2.371982439         3.714863205    
HB        0.9995404290        -3.311815005         3.302517857    
HB         1.092390075        -2.308520973         4.768302992    
HB         2.456068405        -2.352816814         3.638137059    
C          1.150528935        -1.133150056         1.438437235    
O          2.213474563        -1.625042739         1.042065767    
N         0.2989770922       -0.5417044526        0.5905503120    
H        -0.5523605008       -0.1515552820        0.9675791096    
CA        0.5260140956       -0.4053387065       -0.8516396908    
HA        0.9070353597        -1.356510570        -1.229119102    
CB       -0.8221302775       -0.1448166115        -1.537027185    
HB        -1.239000096        0.8033580354        -1.194003485    
HB       -0.6856748641       -0.1014586455        -2.618393491    
HB        -1.518946448       -0.9511865574        -1.303770376    
C          1.570070653        0.6813962326        -1.197660808    
O          1.795722097         1.624459407       -0.4292229150    
N          2.193084762        0.5620600078        -2.374924547    
H          1.950384121       -0.2205075299        -2.964794898    
CA         3.174698309         1.521437006        -2.891550761    
HA         3.870502431         1.765977978        -2.086300468    
CB         3.978943813        0.8412651797        -4.008065306    
HB         4.757372422         1.516119041        -4.366772781    
HB         4.450510331       -0.6576510445E-01    -3.626771706    
HB         3.321246888        0.5841439791        -4.840004320    
C          2.531441142         2.845721334        -3.367441226    
O          1.353022613         2.888319220        -3.743336401    
N          3.320092283         3.929333288        -3.377585324    
H          4.276006256         3.813601371        -3.067346168    
CH         2.901390447         5.265329151        -3.805380323    
HH         2.072887450         5.615495423        -3.186048989    
HH         3.732414361         5.967159985        -3.711096776    
HH         2.577408593         5.241383739        -4.848002267    
    52
Energy=    -38.1634053150324    
HH        -5.966132827       -0.7813003266        0.2994650375    
CH        -4.958149332       -0.8483175650       -0.1079695936    
HH        -4.815640339        -1.826461067       -0.5656518845    
HH        -4.814252866       -0.7061085478E-01   -0.8570913828    
C         -3.955415464       -0.6695306619         1.009120129    
O         -3.143663749        0.2554165397        0.9715441285    
N         -4.003338872        -1.555753854         2.002993909    
H         -4.694042561        -2.289993488         1.954640071    
CA        -3.086801267        -1.544019364         3.145746106    
HA        -3.099672395       -0.5421485138         3.579882478    
CB        -3.604967089        -2.518504764         4.211678225    
HB        -3.619721035        -3.535188838         3.815547801    
HB        -2.952546809        -2.487039359         5.085521925    
HB        -4.613748612        -2.234842407         4.515339873    
C         -1.635450202        -1.864558295         2.725327709    
O         -1.391142294        -2.802150457         1.957845209    
N        -0.6749568882        -1.086245993         3.241906989    
H        -0.9632743642       -0.3578734382         3.880857034    
CA        0.7647619778        -1.174456845         2.949198209    
HA         1.211743750       -0.2740483967         3.374022460    
CB         1.365698246        -2.360136225         3.723381179    
HB        0.9977962627        -3.301488287         3.313771477    
HB         1.090221109        -2.294095076         4.776767698    
HB         2.453437160        -2.340001769         3.646102665    
C          1.145357729        -1.127739745         1.443596551    
O          2.207435665        -1.621757014         1.047529232    
N         0.2937263301       -0.5374146419        0.5949355387    
H        -0.5569740957       -0.1453965765        0.9715752558    
CA        0.5196562538       -0.4053610746       -0.8478503293    
HA        0.8961586844        -1.359075592        -1.223440641    
CB       -0.8280391626       -0.1404959208        -1.532520457    
HB        -1.239828902        0.8107993103        -1.192039684    
HB       -0.6925703812       -0.1011287954        -2.614159257    
HB        -1.528693002       -0.9426386330        -1.296060617    
C          1.567923541        0.6761100191        -1.197665497    
O          1.797885204         1.620491664       -0.4321247330    
N          2.189643231        0.5508591314        -2.375000421    
H          1.943380549       -0.2324163904        -2.962448408    
CA         3.174768691         1.504769576        -2.895046942    
HA         3.872121241         1.748788963        -2.090978953    
CB         3.975469061        0.8181599998        -4.010168194    
HB         4.756369950         1.488829084        -4.371342201    
HB         4.443629174       -0.8967930883E-01    -3.626608891    
HB         3.316152038        0.5613286648        -4.840913577    
C          2.536540144         2.830282266        -3.374276494    
O          1.358040048         2.876575362        -3.749478632    
N          3.329560748         3.910660110        -3.388060966    
H          4.285216204         3.791947194        -3.078151836    
CH         2.915965337         5.247112739        -3.819381691    
HH         2.089317942         5.602393061        -3.200483552    
HH         3.749885837         5.945842265        -3.727674023    
HH         2.591160699         5.221503390        -4.861708031    
