    52
Energy=    -41.0966294905170    
HH        -4.463893800        0.3346909597       -0.1667520109    
CH        -3.768679048       -0.4899402719       -0.3191026230    
HH        -4.197801894        -1.406471169        0.8386559974E-01
HH        -3.576608146       -0.6134054929        -1.384323937    
C         -2.473845579       -0.1872382271        0.3958186073    
O         -1.418584437       -0.1280741489       -0.2322802170    
N         -2.541104466       -0.2305949866E-01     1.716749393    
H         -3.448861644       -0.9726278498E-01     2.153802655    
CA        -1.405894047        0.3715279130         2.562221870    
HA        -1.021753466         1.323532677         2.192290994    
CB        -1.935984898        0.5953576624         3.984432502    
HB        -2.332166209       -0.3376198226         4.388775717    
HB        -1.126992311        0.9461651010         4.626852279    
HB        -2.725168646         1.348635771         3.973141652    
C        -0.2272770243       -0.6307316491         2.554067625    
O         0.9128727809       -0.2458675640         2.828429597    
N        -0.4773974346        -1.897581910         2.198418569    
H         -1.438216327        -2.155109412         2.022169178    
CA        0.5509864556        -2.930384968         2.030245110    
HA         1.231011812        -2.885356535         2.882919455    
CB       -0.1479089942        -4.296030231         2.055061915    
HB       -0.8328988818        -4.383426134         1.210057522    
HB       -0.7047943443        -4.411894725         2.986122017    
HB        0.5970670220        -5.090480103         1.991744492    
C          1.406440501        -2.755040799        0.7516815904    
O          2.516510182        -3.291641738        0.6799654642    
N         0.9140588933        -2.002512777       -0.2428044573    
H        -0.9414339093E-02    -1.606817521       -0.1179098587    
CA         1.603261952        -1.707359030        -1.506409399    
HA         2.513070210        -2.305682508        -1.575823302    
CB        0.6805002384        -2.134963779        -2.654919316    
HB       -0.2416392373        -1.551869944        -2.633405619    
HB         1.182914128        -1.970625342        -3.609123934    
HB        0.4392025256        -3.194826550        -2.562106130    
C          2.028252561       -0.2273950416        -1.638820915    
O          3.051059792        0.6915987800E-01    -2.264915464    
N          1.273825758        0.6994199817        -1.037829755    
H         0.4111994455        0.3971033855       -0.6025782190    
CA         1.542849122         2.138821595        -1.058180417    
HA         2.605938724         2.291733102       -0.8612264298    
CB        0.7590372887         2.789635672        0.8988731354E-01
HB        0.9829676001         3.856338147        0.1332887497    
HB         1.044470479         2.333224139         1.038791204    
HB       -0.3127691253         2.657604092       -0.6707981842E-01
C          1.223940251         2.794853000        -2.422762796    
O         0.4061637396         2.291782251        -3.203647370    
N          1.857197145         3.943006267        -2.700488144    
H          2.503345338         4.298912820        -2.008208870    
CH         1.681555505         4.719785523        -3.928844444    
HH         2.315807685         5.608156044        -3.904988463    
HH        0.6402726485         5.033224716        -4.029165489    
HH         1.953874815         4.115998777        -4.797103674    
    52
Energy=    -34.5458133730540    
HH        -5.176309854        -1.115616023        0.6201212594    
CH        -4.292316196        -1.692899096        0.3519038225    
HH        -4.290471149        -2.631821300        0.9042294284    
HH        -4.301469882        -1.898339844       -0.7179558876    
C         -3.055021026       -0.9017457313        0.7057667663    
O         -2.241420505       -0.6000516605       -0.1660951210    
N         -2.894790909       -0.5849159199         1.990959909    
H         -3.611222102       -0.8756224653         2.641177403    
CA        -1.798919608        0.2473376810         2.504691189    
HA        -1.826600271         1.206635111         1.984953690    
CB        -2.061248629        0.5064449634         3.993973306    
HB        -2.044561471       -0.4336019121         4.548041512    
HB        -1.290464984         1.167779019         4.392532237    
HB        -3.033369345        0.9847759531         4.122731692    
C        -0.3939015017       -0.3569757945         2.278476602    
O         0.5875692096        0.3825129304         2.166580718    
N        -0.2908854391        -1.685840249         2.148203119    
H         -1.129027962        -2.236931082         2.269317819    
CA        0.9590529214        -2.394571299         1.850752073    
HA         1.723877662        -2.054887941         2.551660447    
CB        0.7202722292        -3.890035416         2.096640815    
HB       -0.3790028907E-01    -4.267927884         1.408652689    
HB        0.3889598833        -4.049860159         3.123832517    
HB         1.648855140        -4.440560070         1.938959339    
C          1.497174289        -2.135634127        0.4229198523    
O          2.694052749        -2.311256053        0.1760790059    
N         0.6398583722        -1.693650866       -0.5081691477    
H        -0.3323160099        -1.582642977       -0.2460135191    
CA         1.001271689        -1.350923411        -1.890019092    
HA         1.894031768        -1.913623977        -2.168239405    
CB       -0.1374166957        -1.822102153        -2.805297500    
HB        -1.047200700        -1.259237946        -2.593086387    
HB        0.1400331698        -1.666553562        -3.848625143    
HB       -0.3251845206        -2.885195400        -2.648148738    
C          1.338899449        0.1465359477        -2.101248765    
O          1.775629179        0.5150512534        -3.194565403    
N          1.152280390        0.9792184374        -1.063138447    
H         0.8253353422        0.5409785094       -0.2147318046    
CA         1.290471502         2.444536556       -0.9841699661    
HA         2.042406639         2.659245207       -0.2225072792    
CB       -0.4466738983E-01     3.000834344       -0.4640309222    
HB        0.2599917661E-01     4.083956308       -0.3549488104    
HB       -0.2758124235         2.567062960        0.5091336389    
HB       -0.8494812528         2.763444878        -1.161631757    
C          1.738800966         3.171470934        -2.279055352    
O         0.9241072714         3.482906404        -3.157945837    
N          3.041027833         3.475567076        -2.377716816    
H          3.646393350         3.190780886        -1.619166594    
CH         3.653567597         4.170604276        -3.510998260    
HH         4.725777459         4.289854468        -3.343250057    
HH         3.204065076         5.158255398        -3.633518278    
HH         3.502210102         3.597234619        -4.428016561    
    52
Energy=    -39.6780236339010    
HH        -4.966582801        -2.917725588         1.861276657    
CH        -4.006276025        -3.173794023         1.415295344    
HH        -3.491776907        -3.894104260         2.050190383    
HH        -4.166181602        -3.605790711        0.4280390456    
C         -3.165396568        -1.924453510         1.292611744    
O         -2.766608036        -1.551043245        0.1902797985    
N         -2.873294502        -1.287772388         2.427377528    
H         -3.241727484        -1.667246807         3.288055693    
CA        -2.137147118       -0.1810080137E-01     2.498777310    
HA        -2.656562803        0.7126090871         1.876083707    
CB        -2.187986932        0.4745823495         3.951094541    
HB        -1.677238399       -0.2331313277         4.606239315    
HB        -1.697713798         1.446317439         4.026437373    
HB        -3.225398092        0.5805333213         4.271946185    
C        -0.6814104173       -0.1016677173         1.983661716    
O        -0.1102905452        0.9131710359         1.573309107    
N        -0.9226634620E-01    -1.304258362         1.942999671    
H        -0.6098216385        -2.091788205         2.306830908    
CA         1.255786436        -1.556190404         1.420657277    
HA         1.958458025       -0.9192990412         1.961221671    
CB         1.609743140        -3.018712667         1.719862032    
HB        0.9256106127        -3.686483914         1.193480002    
HB         1.543878346        -3.205506000         2.792813289    
HB         2.629627108        -3.223937206         1.391208711    
C          1.410224615        -1.236137083       -0.8505622014E-01
O          2.524710367       -0.9775995998       -0.5491762519    
N         0.3059946935        -1.189799762       -0.8441052662    
H        -0.5805921427        -1.426286799       -0.4160770442    
CA        0.2923603649       -0.7864309711        -2.254804550    
HA         1.044966179        -1.370689872        -2.787568262    
CB        -1.082281091        -1.141052236        -2.835669900    
HB        -1.860339404       -0.5581233179        -2.340499599    
HB        -1.097973593       -0.9186099770        -3.903455773    
HB        -1.282797631        -2.204249609        -2.695693358    
C         0.6302801417        0.7081661187        -2.474910583    
O          1.012760569         1.091972640        -3.584300755    
N         0.5198771136         1.541733774        -1.428103517    
H         0.1779346164         1.151980257       -0.5586909616    
CA        0.9194209432         2.956053415        -1.396573216    
HA        0.8620816476         3.257342290       -0.3492141074    
CB       -0.1251842157         3.802200945        -2.144438122    
HB        0.7695261994E-01     4.862322770        -1.987135675    
HB        -1.123742519         3.577899281        -1.767094127    
HB       -0.8786259317E-01     3.588684398        -3.213102293    
C          2.393596047         3.226848937        -1.803134477    
O          2.725447944         4.311341230        -2.296752257    
N          3.287548762         2.246408264        -1.599334586    
H          2.946624542         1.384288909        -1.194208719    
CH         4.711494590         2.324370228        -1.927143689    
HH         5.208071152         1.389005849        -1.661654946    
HH         5.180090016         3.141574361        -1.374813131    
HH         4.840912912         2.500578304        -2.997037617    
