    52
Energy=    -38.2033786461714    
HH        -2.907698420         1.898904907         5.498216548    
CH        -2.299935420         1.954576088         4.595869255    
HH        -2.947364903         2.088740928         3.730156368    
HH        -1.612236434         2.796166307         4.670955459    
C         -1.517668658        0.6700374424         4.441771513    
O        -0.2876707796        0.6937937322         4.415588720    
N         -2.232532031       -0.4499014762         4.332974014    
H         -3.238413665       -0.3725055589         4.383373287    
CA        -1.655289314        -1.795052328         4.207779965    
HA       -0.7658109310        -1.847772960         4.838116538    
CB        -2.677912704        -2.796635460         4.762004967    
HB        -2.252141972        -3.800932086         4.752444203    
HB        -2.934518239        -2.535671740         5.789812439    
HB        -3.581323210        -2.787692839         4.150116796    
C         -1.208815880        -2.166476151         2.772201256    
O        -0.5287574317        -3.180093163         2.578995172    
N         -1.581640405        -1.369043894         1.763513577    
H         -2.128569381       -0.5521657893         1.989623667    
CA        -1.234536262        -1.589022168        0.3559485263    
HA        -1.414989522        -2.640080901        0.1208411969    
CB        -2.180060396       -0.7494747457       -0.5148821966    
HB        -3.216721861        -1.008423968       -0.2935563855    
HB        -2.024529723        0.3131399852       -0.3203349395    
HB        -1.988593369       -0.9493998132        -1.570119324    
C         0.2497759678        -1.291161236        0.4208517443E-01
O         0.9051750541       -0.4965016802        0.7249092529    
N         0.7705233987        -1.903562768        -1.028040231    
H         0.1847768867        -2.550673433        -1.538060505    
CA         2.157064365        -1.737470780        -1.485764893    
HA         2.805916763        -1.678998617       -0.6099843880    
CB         2.545451663        -2.998956610        -2.268772402    
HB         1.929026799        -3.089621151        -3.164604534    
HB         3.594084294        -2.940440943        -2.563755989    
HB         2.407200299        -3.882156685        -1.643278710    
C          2.402583746       -0.4520679202        -2.313872433    
O          3.556890723       -0.7913058123E-01    -2.549046922    
N          1.339335801        0.2280278735        -2.760743566    
H         0.4241175049       -0.1267891700        -2.530812745    
CA         1.410266301         1.465199311        -3.544522815    
HA         2.155089152         1.328468559        -4.331251669    
CB        0.5221846724E-01     1.686298379        -4.224870605    
HB        0.9813889219E-01     2.569936827        -4.862962961    
HB       -0.1999243363        0.8221121504        -4.841405682    
HB       -0.7244515186         1.832117690        -3.472236024    
C          1.840536849         2.691740032        -2.705455078    
O          1.625893201         2.744613358        -1.488025474    
N          2.425424989         3.699299344        -3.368167301    
H          2.555549183         3.588723369        -4.365289128    
CH         2.887788885         4.946553166        -2.756795840    
HH         3.330617044         5.594785575        -3.515578024    
HH         3.638991607         4.734477621        -1.993042469    
HH         2.049669231         5.470163773        -2.292064664    
    52
Energy=    -32.4131622570488    
HH        -3.659148920         1.440505840         5.427472846    
CH        -3.028100139         1.602434412         4.554395051    
HH        -3.648840569         1.639513612         3.660005332    
HH        -2.489160047         2.542895265         4.663586063    
C         -2.042854328        0.4621358389         4.433130718    
O        -0.8328691084        0.6837586129         4.463842864    
N         -2.562142687       -0.7570679454         4.288148705    
H         -3.568580727       -0.8430922381         4.292140265    
CA        -1.770474387        -1.990419440         4.185970595    
HA       -0.9156103500        -1.907220488         4.859443060    
CB        -2.644038955        -3.149975502         4.684357621    
HB        -2.062169872        -4.072669390         4.691495609    
HB        -2.988597694        -2.946307681         5.699314051    
HB        -3.506516640        -3.278677572         4.028454739    
C         -1.201288570        -2.267674278         2.772710107    
O        -0.3574933557        -3.155620123         2.609129758    
N         -1.649310172        -1.528753096         1.750169527    
H         -2.332014452       -0.8141893242         1.952379393    
CA        -1.202920078        -1.671597442        0.3608073081    
HA        -1.203185918        -2.734445423        0.1100150241    
CB        -2.224704545       -0.9780134991       -0.5514129750    
HB        -3.217156038        -1.400287937       -0.3857848299    
HB        -2.248899099        0.9275701103E-01   -0.3413402198    
HB        -1.951688969        -1.128960633        -1.596794134    
C         0.2287954318        -1.138397893        0.1251604388    
O         0.7117605910       -0.2536944869        0.8403269504    
N         0.8957621417        -1.647946885       -0.9176789041    
H         0.4515340658        -2.378281308        -1.457553569    
CA         2.260312875        -1.254499970        -1.296190403    
HA         2.870645418        -1.215404231       -0.3919838623    
CB         2.831449798        -2.355272100        -2.200091631    
HB         2.252724129        -2.422276383        -3.122794644    
HB         3.868828116        -2.125623057        -2.447615095    
HB         2.799967439        -3.315200191        -1.682433309    
C          2.354405522        0.1377802259        -1.968130793    
O          3.443435059        0.7159519190        -2.004872395    
N          1.226126273        0.6477777028        -2.489615855    
H         0.4185163481        0.4685786273E-01    -2.424683513    
CA        0.9663538920         1.973834202        -3.078374292    
HA        0.6225574145         1.814061558        -4.102098635    
CB       -0.2080908131         2.591605665        -2.302522563    
HB       -0.4652732698         3.559762518        -2.734565490    
HB        -1.080277978         1.939044096        -2.363025466    
HB        0.6338154557E-01     2.728652247        -1.254497695    
C          2.171898090         2.946864695        -3.155038778    
O          2.487993301         3.658228150        -2.192175693    
N          2.826944849         3.001363981        -4.323779144    
H          2.510658963         2.390892222        -5.065572204    
CH         3.977916290         3.863245847        -4.597805612    
HH         4.324190633         3.712717027        -5.622221366    
HH         4.794205423         3.627104763        -3.911877466    
HH         3.701044376         4.911823043        -4.469925490    
    52
Energy=    -37.0734907445105    
HH        -4.179125597        0.8296441483         5.490035169    
CH        -3.522068063         1.130793105         4.674993160    
HH        -4.094638819         1.189070896         3.750118912    
HH        -3.088335745         2.105071898         4.897483402    
C         -2.420739233        0.1069521340         4.518376446    
O         -1.242998048        0.4408230228         4.643285042    
N         -2.804654769        -1.138418811         4.237671493    
H         -3.795861523        -1.321314127         4.171429974    
CA        -1.887234310        -2.275048296         4.080371778    
HA        -1.082622139        -2.171222979         4.810507803    
CB        -2.663690356        -3.554104770         4.422738698    
HB        -1.992149016        -4.413047310         4.387589703    
HB        -3.081116903        -3.477832693         5.427863301    
HB        -3.472168523        -3.705391673         3.705720600    
C         -1.217786191        -2.366337272         2.686928285    
O        -0.2807397856        -3.150368294         2.501298841    
N         -1.682855465        -1.583933812         1.705134869    
H         -2.444330335       -0.9597577471         1.924540146    
CA        -1.150315949        -1.555952733        0.3391804566    
HA        -1.026261560        -2.586739731        0.6131267199E-03
CB        -2.189259706       -0.8892407219       -0.5735357810    
HB        -3.139320901        -1.421664228       -0.5054990582    
HB        -2.336800117        0.1506436142       -0.2767672208    
HB        -1.846808879       -0.9183838677        -1.608918005    
C         0.2293234653       -0.8653727628        0.2391531121    
O         0.5830725206       -0.1177211212E-01     1.059971822    
N         0.9981059080        -1.206810036       -0.8020422639    
H         0.6554265909        -1.916944137        -1.434835495    
CA         2.342899701       -0.6679635440        -1.046931225    
HA         2.886680366       -0.6548591743       -0.1004956186    
CB         3.069690955        -1.634595118        -1.991578434    
HB         2.560530895        -1.672720797        -2.956004972    
HB         4.095702837        -1.296785791        -2.144749397    
HB         3.092602631        -2.634225989        -1.554889141    
C          2.356670675        0.7783763819        -1.597603861    
O          3.387479971         1.453483682        -1.519335246    
N          1.227754532         1.256105952        -2.144095354    
H         0.4312387341        0.6358329586        -2.163572851    
CA         1.033079720         2.604527770        -2.701412615    
HA        0.7609737975E-01     2.577766399        -3.225355975    
CB        0.8636139541         3.607557075        -1.547535040    
HB        0.5633762302         4.578801543        -1.942566559    
HB        0.9228125354E-01     3.256562636       -0.8606870472    
HB         1.803490204         3.718871773        -1.005774249    
C          2.062573533         3.025447167        -3.785240400    
O          2.395772172         4.208998805        -3.921140424    
N          2.574464693         2.058732930        -4.562190356    
H          2.252031519         1.115269054        -4.396245593    
CH         3.561969000         2.265711305        -5.622720831    
HH         3.804764958         1.314447517        -6.100349254    
HH         4.475939994         2.693464888        -5.205344194    
HH         3.165247839         2.947851673        -6.377589680    
