    52
Energy=    -35.9139105452171    
HH        -5.461455263         2.425228058         3.683126279    
CH        -4.522739795         2.517388269         3.138259984    
HH        -4.727719567         2.581215613         2.070337351    
HH        -3.998594643         3.415242572         3.463497120    
C         -3.666184569         1.300725608         3.409836110    
O         -2.555876009         1.428877503         3.926515635    
N         -4.183321513        0.1224348738         3.065021381    
H         -5.098250557        0.1157479973         2.639755875    
CA        -3.492639661        -1.161644095         3.219218147    
HA        -2.992604579        -1.166110741         4.189901541    
CB        -4.542725122        -2.281169986         3.234963129    
HB        -5.065203521        -2.317601829         2.277664320    
HB        -4.056792802        -3.241920941         3.410554562    
HB        -5.264396354        -2.102461389         4.033504253    
C         -2.411438781        -1.400620974         2.139165752    
O         -2.497159932       -0.8677573344         1.025806723    
N         -1.427672226        -2.251708059         2.465790563    
H         -1.465575377        -2.657186482         3.390144208    
CA       -0.2594425313        -2.608548369         1.643314042    
HA        0.3790185181        -3.237604760         2.266449642    
CB       -0.7247768039        -3.497169595        0.4745267391    
HB        -1.294195010        -2.908571119       -0.2455380581    
HB        -1.351255368        -4.307310574        0.8507806502    
HB        0.1356898577        -3.935787726       -0.3155736863E-01
C         0.6362261861        -1.414539564         1.215133811    
O         0.4013981520       -0.2564872618         1.580111321    
N          1.709963689        -1.704958289        0.4711379993    
H          1.860404489        -2.668266030        0.2099426005    
CA         2.659645627       -0.7096903509       -0.3744058375E-01
HA         2.910814366       -0.2776547068E-01    0.7776252115    
CB         3.949019376        -1.432284462       -0.4508740542    
HB         3.744756197        -2.123418126        -1.270277575    
HB         4.691966481       -0.7038044529       -0.7787498438    
HB         4.352804543        -1.986922080        0.3975211466    
C          2.080818744        0.1393108374        -1.192960644    
O          1.188582554       -0.3001933513        -1.928663173    
N          2.613676116         1.352730690        -1.371919880    
H          3.353261075         1.644515156       -0.7497280867    
CA         2.228179718         2.274313696        -2.445671241    
HA         1.137928260         2.296199502        -2.502630148    
CB         2.700771657         3.685318724        -2.069118277    
HB         2.371345333         4.399597608        -2.824984532    
HB         2.277158608         3.974510444        -1.106109606    
HB         3.789935476         3.711362856        -2.007121278    
C          2.756910028         1.838979035        -3.833086192    
O          3.768199761         1.133857904        -3.942395831    
N          2.083385383         2.285882225        -4.902162896    
H          1.273341864         2.867927305        -4.733458945    
CH         2.433919878         1.995735051        -6.293615280    
HH         2.413477431        0.9180645952        -6.469150867    
HH         1.721865842         2.475722859        -6.967891094    
HH         3.435555076         2.370614230        -6.514500643    
    52
Energy=    -31.7176213742435    
HH        -5.071793263         2.547044162         3.609365509    
CH        -4.004270095         2.503645597         3.821654418    
HH        -3.462597334         3.089280454         3.079918467    
HH        -3.813051126         2.906667009         4.815466719    
C         -3.540466491         1.065589747         3.757185957    
O         -3.033889522        0.5337616137         4.745682102    
N         -3.714808827        0.4371149076         2.595492949    
H         -4.131245027        0.9554802002         1.836581729    
CA        -3.305795297       -0.9468414804         2.335478392    
HA        -3.622816265        -1.558792979         3.182504885    
CB        -4.054100960        -1.451431132         1.093613839    
HB        -3.763727509       -0.8675187503        0.2186262593    
HB        -3.812400864        -2.500387441        0.9162527205    
HB        -5.130671358        -1.361265165         1.246408439    
C         -1.774205660        -1.110315236         2.189964450    
O         -1.075035002       -0.1633140143         1.817041261    
N         -1.288148217        -2.329625996         2.470331733    
H         -1.973754791        -3.007531536         2.771702908    
CA        0.8922134953E-01    -2.848957810         2.374310824    
HA        0.3627192806        -3.197158438         3.371939700    
CB        0.6812291725E-01    -4.091474897         1.468833011    
HB       -0.2762717871        -3.829693477        0.4672033390    
HB       -0.6035630189        -4.842373261         1.887517636    
HB         1.070464240        -4.517998868         1.404853115    
C          1.198843882        -1.846982594         1.967452165    
O          1.952933226        -1.378093565         2.827045266    
N          1.308668961        -1.530967849        0.6709714999    
H         0.6415144981        -1.940370270        0.3316499882E-01
CA         2.259412964       -0.5684137403        0.1056873229    
HA         2.529726779        0.1594150488        0.8732413951    
CB         3.530597752        -1.322057294       -0.3132500305    
HB         3.292840798        -2.055858835        -1.085026236    
HB         4.266381090       -0.6187647803       -0.7055707450    
HB         3.960477670        -1.834034471        0.5487692397    
C          1.653350876        0.2152729292        -1.079584487    
O         0.7200165444       -0.2517663062        -1.743783155    
N          2.202019594         1.401624826        -1.361709111    
H          2.974335124         1.716580201       -0.7927431764    
CA         1.788875617         2.258262865        -2.478172622    
HA        0.6977891844         2.300023622        -2.491756380    
CB         2.303627488         3.680475241        -2.216710342    
HB         1.956092904         4.350170694        -3.004604360    
HB         1.926736688         4.041869010        -1.258687587    
HB         3.394736201         3.686875178        -2.201280415    
C          2.249963439         1.720678810        -3.853813107    
O          3.242400617        0.9884125330        -3.957068659    
N          1.540040287         2.110043753        -4.921846725    
H         0.7488717101         2.719186811        -4.759390922    
CH         1.825656751         1.720875790        -6.303939268    
HH         1.777760546        0.6346234162        -6.405753728    
HH         1.094625678         2.170220590        -6.979023664    
HH         2.823788061         2.058794979        -6.590547533    
    52
Energy=    -38.7747288291116    
HH        -5.880440856         1.830965577         3.138381057    
CH        -5.084561854         1.637127521         3.856413089    
HH        -4.399035881         2.483439862         3.875646916    
HH        -5.513953956         1.492703411         4.847085029    
C         -4.330178262        0.3936038770         3.441935323    
O         -4.275746104       -0.5777694657         4.196909405    
N         -3.750235343        0.4229828004         2.242852062    
H         -3.841158502         1.265817606         1.695555997    
CA        -2.960028216       -0.6763619404         1.680160575    
HA        -3.507242847        -1.607188366         1.842979864    
CB        -2.841866582       -0.4662284815        0.1640727431    
HB        -2.293332700        0.4537421689       -0.4489264857E-01
HB        -2.311198199        -1.305844367       -0.2869234297    
HB        -3.836142833       -0.4017626149       -0.2805410119    
C         -1.574760921       -0.8296524291         2.349280349    
O         -1.008315829        0.1299089743         2.885098924    
N         -1.005177819        -2.039036007         2.281550792    
H         -1.521322716        -2.784126264         1.834126573    
CA        0.2988191200        -2.373826378         2.871039755    
HA        0.3493361214        -1.932397897         3.868084153    
CB        0.3631524483        -3.898826098         3.030158594    
HB        0.3264002587        -4.380423580         2.051633890    
HB       -0.4752986585        -4.245432211         3.636178589    
HB         1.292958229        -4.177368099         3.528134964    
C          1.512503885        -1.833729890         2.075580991    
O          2.627468992        -1.789096027         2.605888038    
N          1.307318874        -1.419202278        0.8194408775    
H         0.3669922361        -1.481112420        0.4574331416    
CA         2.320837840       -0.8420729317       -0.7022640829E-01
HA         3.108424375       -0.3841646503        0.5315144972    
CB         2.944072483        -1.975410133       -0.8990323688    
HB         2.180738426        -2.448994819        -1.518479425    
HB         3.728355118        -1.576483982        -1.543754072    
HB         3.382710808        -2.722589634       -0.2361687801    
C          1.732244504        0.2617892565       -0.9769507109    
O         0.5184114391        0.3175079901        -1.207116097    
N          2.596519042         1.133110366        -1.507537768    
H          3.577059423         1.021862771        -1.293767410    
CA         2.220752695         2.213974686        -2.425012199    
HA         1.336946888         2.712963119        -2.022101655    
CB         3.359279702         3.242860638        -2.457301764    
HB         3.076496791         4.087546109        -3.087058900    
HB         3.557946569         3.609091968        -1.448909028    
HB         4.264767316         2.786815211        -2.860918140    
C          1.861471554         1.705346074        -3.841408882    
O          2.324372741        0.6442017809        -4.278988321    
N          1.051906715         2.482956992        -4.573676470    
H         0.7235164798         3.342052199        -4.152373879    
CH        0.6096938171         2.181926503        -5.936401686    
HH        0.6335731317E-01     1.236506948        -5.953677370    
HH       -0.4656413556E-01     2.974383069        -6.301630051    
HH         1.471730312         2.103913288        -6.602287712    
