    52
Energy=    -41.0583417174378    
HH        -4.824808803        -3.136859393         1.760199133    
CH        -3.806471713        -3.346809211         1.435281690    
HH        -3.279735305        -3.888980873         2.219658907    
HH        -3.830003524        -3.948888232        0.5276391189    
C         -3.092566922        -2.043559083         1.161608457    
O         -2.636222212        -1.809324026        0.4339153281E-01
N         -2.972686975        -1.201544464         2.188710876    
H         -3.376203571        -1.477318513         3.072799203    
CA        -2.382319272        0.1407181441         2.094676483    
HA        -2.913552252        0.6930078995         1.317349430    
CB        -2.621314138        0.8549538729         3.431559157    
HB        -2.103703444        0.3297898944         4.236045304    
HB        -2.244371953         1.877165825         3.374100609    
HB        -3.689764252        0.8880205045         3.649962198    
C        -0.8836456617        0.1473939774         1.713146662    
O        -0.3821279180         1.145762772         1.188622684    
N        -0.1726927504       -0.9697136945         1.915434213    
H        -0.6370843937        -1.747175845         2.362941888    
CA         1.236076021        -1.137630471         1.541579604    
HA         1.814248386       -0.3397002396         2.011324329    
CB         1.717992643        -2.476750862         2.114529621    
HB         1.160709327        -3.300481985         1.665157691    
HB         1.576048520        -2.491320455         3.196239372    
HB         2.779627016        -2.606977859         1.899409874    
C          1.489511589        -1.052899506        0.1783186116E-01
O          2.607659884       -0.7444686646       -0.4043968336    
N         0.4598911890        -1.263627534       -0.8146171439    
H        -0.4343267108        -1.520433018       -0.4150757224    
CA        0.5415252314        -1.150304930        -2.275577019    
HA         1.375773979        -1.763776921        -2.620944916    
CB       -0.7495188474        -1.729903352        -2.867504111    
HB        -1.606340525        -1.129259689        -2.558404773    
HB       -0.6881604273        -1.726513200        -3.956610249    
HB       -0.8869003520        -2.757292472        -2.527184584    
C         0.7956489158        0.2915480562        -2.778081057    
O          1.238489491        0.4778851197        -3.915519145    
N         0.5576489056         1.309434275        -1.938980824    
H         0.1723989820         1.096363460        -1.028094839    
CA        0.8434762978         2.717857996        -2.236216133    
HA        0.6131387345         2.902882701        -3.286941208    
CB       -0.1072436056         3.580120354        -1.394766233    
HB        0.1692307732E-01     4.630752890        -1.660246405    
HB        0.1129375891         3.454569919       -0.3338313834    
HB        -1.141367789         3.290411693        -1.586658896    
C          2.326116337         3.117428011        -2.024745906    
O          2.721499123         4.230808920        -2.388472611    
N          3.153571516         2.232650816        -1.446007802    
H          2.766257937         1.336564725        -1.177351603    
CH         4.573617586         2.460690509        -1.177557924    
HH         4.697246781         3.317087460       -0.5114089000    
HH         5.009760144         1.579244630       -0.7033640881    
HH         5.105338415         2.658399868        -2.110639585    
    52
Energy=    -40.7684806278434    
HH        -4.930554940        -2.107520149         1.404801429    
CH        -3.974864191        -2.512482911         1.074177836    
HH        -3.617642215        -3.240094242         1.801927926    
HH        -4.098731839        -2.995222963        0.1054167757    
C         -2.972081004        -1.388687167        0.9564509114    
O         -2.429703152        -1.151817878       -0.1219558879    
N         -2.703238341       -0.7081706847         2.071089753    
H         -3.193422506       -0.9718128907         2.914160824    
CA        -1.818725758        0.4631454635         2.129918569    
HA        -2.188953713         1.206444516         1.421352938    
CB        -1.919245723         1.059995129         3.539810517    
HB        -1.558156180        0.3425162632         4.278582633    
HB        -1.314136177         1.965930233         3.598679391    
HB        -2.956086586         1.316898307         3.761969258    
C        -0.3506641238        0.1622173059         1.749949316    
O         0.3658860955         1.057309286         1.294188045    
N         0.9171033993E-01    -1.095863704         1.872634810    
H        -0.5366691763        -1.780368275         2.269208614    
CA         1.433098172        -1.540041658         1.479333220    
HA         2.167957548       -0.9019149411         1.973792041    
CB         1.624590939        -2.973200111         1.991947128    
HB        0.9044926983        -3.642242593         1.517749644    
HB         1.487620587        -3.002488961         3.073995881    
HB         2.634061000        -3.314273615         1.757592171    
C          1.689078607        -1.446833610       -0.4291493902E-01
O          2.833770055        -1.258151592       -0.4641872437    
N         0.6378309063        -1.526856161       -0.8708048482    
H        -0.2785694166        -1.683405614       -0.4696373306    
CA        0.7250563729        -1.380210722        -2.328965280    
HA         1.629559896        -1.882871153        -2.676562743    
CB       -0.4769002748        -2.100574559        -2.953341773    
HB        -1.405073216        -1.610098677        -2.657329095    
HB       -0.3947710084        -2.075122441        -4.040780579    
HB       -0.4975000700        -3.141443838        -2.627268995    
C         0.8143008172        0.9215951121E-01    -2.794222291    
O          1.270749302        0.3616429538        -3.909399618    
N         0.4087185796         1.046117414        -1.945404963    
H         0.3414447384E-01    0.7547586484        -1.053913735    
CA        0.4620226399         2.488579993        -2.212584378    
HA        0.3368629155         2.649852267        -3.284738879    
CB       -0.7333817096         3.142142699        -1.505565526    
HB       -0.7707192793         4.203809291        -1.753077585    
HB       -0.6362739952         3.033975200       -0.4246091952    
HB        -1.661990739         2.673119228        -1.834174332    
C          1.804218085         3.151007685        -1.814213544    
O          2.053290259         4.306707639        -2.175426548    
N          2.674597039         2.437960587        -1.083159222    
H          2.396321314         1.503694949       -0.8172008726    
CH         3.983016163         2.912141022       -0.6313627262    
HH         3.863628648         3.787234879        0.1083242520E-01
HH         4.490867731         2.127495650       -0.6710014621E-01
HH         4.600604452         3.184914788        -1.489659781    
    52
Energy=    -41.7229924013850    
HH        -4.730118272       -0.9534156764        0.8517183856    
CH        -3.861729929        -1.542474922        0.5594294300    
HH        -3.776547325        -2.412122842         1.209805453    
HH        -3.972539705        -1.868112524       -0.4742442033    
C         -2.618924338       -0.6955061401        0.6916213992    
O         -1.907153689       -0.4828732761       -0.2884293878    
N         -2.335915120       -0.2298674103         1.908087568    
H         -2.972190313       -0.4558926274         2.659460015    
CA        -1.219675797        0.6775793879         2.203427873    
HA        -1.353227284         1.587693212         1.616894297    
CB        -1.297219732         1.055196433         3.688367243    
HB        -1.174057660        0.1667396983         4.310006731    
HB       -0.5068209014         1.768454992         3.926895091    
HB        -2.261935485         1.516593364         3.904747126    
C         0.1658329270        0.9547114171E-01     1.844041216    
O          1.066451081        0.8407559971         1.450220815    
N         0.3269286280        -1.232241600         1.910306198    
H        -0.4455270145        -1.784334970         2.256000384    
CA         1.556811467        -1.933379772         1.525278703    
HA         2.398931213        -1.459685381         2.033258575    
CB         1.451162782        -3.379382443         2.026537089    
HB        0.6186622472        -3.887602146         1.537066717    
HB         1.296102781        -3.388127738         3.106482970    
HB         2.375279356        -3.913637879         1.801196310    
C          1.846225446        -1.881919976        0.6553019697E-02
O          3.008302786        -1.971765889       -0.4010049493    
N         0.8114221568        -1.708226226       -0.8271733016    
H        -0.1154632537        -1.654087635       -0.4248180493    
CA        0.9251859553        -1.533107525        -2.279325525    
HA         1.870638791        -1.956884147        -2.622260609    
CB       -0.2049024965        -2.329473843        -2.944373515    
HB        -1.175423831        -1.933863516        -2.641093813    
HB       -0.1149213208        -2.256062210        -4.029034676    
HB       -0.1377521079        -3.379531393        -2.656203905    
C         0.9088719195       -0.4841773340E-01    -2.704436394    
O          1.599338992        0.3306881150        -3.655302692    
N         0.1527599956        0.7998969594        -1.995537777    
H        -0.4434546996        0.4125202220        -1.273343899    
CA        0.3239106152E-01     2.234210838        -2.278184698    
HA       -0.7869533124E-01     2.366996405        -3.355946476    
CB        -1.252243773         2.738857743        -1.608700609    
HB        -1.406826170         3.789387039        -1.858525000    
HB        -1.174902328         2.639530860       -0.5255673571    
HB        -2.108304525         2.163324190        -1.964137000    
C          1.261763211         3.064029807        -1.838727061    
O          1.545838825         4.108110098        -2.436227409    
N          2.001435574         2.610289256       -0.8161482998    
H          1.679400645         1.774663422       -0.3414493133    
CH         3.205525257         3.258784339       -0.2971502777    
HH         2.974897534         4.275979799        0.2607644124E-01
HH         3.592280397         2.697542647        0.5556804305    
HH         3.974031672         3.298701273        -1.071813282    
