    52
Energy=    -38.4667231886613    
HH        -5.873060621         1.110963862        0.2712317833    
CH        -5.134335976         1.525694036        0.9559557862    
HH        -5.640568776         1.992226381         1.800196309    
HH        -4.533294550         2.269563267        0.4344479274    
C         -4.234428164        0.4159372812         1.451522774    
O         -4.163332338        0.1676063749         2.655550991    
N         -3.549182325       -0.2512357163        0.5239178606    
H         -3.666752896        0.2597253803E-01   -0.4392053331    
CA        -2.610257286        -1.339378430        0.8137233187    
HA        -3.083037293        -2.017879500         1.526817865    
CB        -2.359234373        -2.124429656       -0.4818638454    
HB        -1.713171899        -2.979779065       -0.2785896603    
HB        -1.878133606        -1.482958261        -1.222344273    
HB        -3.305804763        -2.490015721       -0.8831831695    
C         -1.291400873       -0.8434005032         1.447548461    
O        -0.8661206240        0.2974488808         1.235500558    
N        -0.6011795497        -1.726753735         2.179224453    
H        -0.9941072835        -2.649807271         2.304725203    
CA        0.6465524854        -1.418176965         2.893487005    
HA        0.4637546100       -0.5613561865         3.544671692    
CB        0.9897085189        -2.622536936         3.780018361    
HB         1.180858604        -3.501635276         3.162283319    
HB        0.1629868281        -2.831264478         4.460745845    
HB         1.880741274        -2.402281676         4.369784227    
C          1.830634662        -1.043183295         1.970228431    
O          2.775719911       -0.3829236072         2.411468101    
N          1.770484557        -1.417995132        0.6855952530    
H         0.9930766733        -1.996918155        0.4021848436    
CA         2.747932462        -1.041086977       -0.3418724349    
HA         3.748946222        -1.129795851        0.8423405380E-01
CB         2.633387998        -2.055541977        -1.487977365    
HB         3.394404525        -1.847440231        -2.241440124    
HB         1.647520715        -1.990094415        -1.951262107    
HB         2.787433754        -3.066131626        -1.106554480    
C          2.599405692        0.4149019205       -0.8507401796    
O          3.477732829        0.9030705276        -1.568264486    
N          1.506350196         1.107756301       -0.4927859697    
H         0.8394375920        0.6465046452        0.1141968577    
CA         1.185405358         2.490331532       -0.8792675670    
HA        0.1505259604         2.651948017       -0.5727317560    
CB         2.037002236         3.461540244       -0.4393402367E-01
HB         1.696888257         4.484993656       -0.2062153169    
HB         1.937316971         3.224824165         1.016219014    
HB         3.085886119         3.385320110       -0.3324727551    
C          1.190524063         2.765578279        -2.407355387    
O          1.504000524         3.876146629        -2.852933153    
N         0.8453857057         1.755212746        -3.220030481    
H         0.5967756318        0.8777243772        -2.784752879    
CH        0.8052036306         1.827005045        -4.681448220    
HH         1.795611394         2.070162174        -5.071931224    
HH        0.1005990481         2.597914340        -5.000429355    
HH        0.4892084877        0.8676531135        -5.095894747    
    52
Energy=    -34.9378140173474    
HH        -5.674315980         1.012802796       -0.2146993589    
CH        -4.987878716         1.453639309        0.5071423174    
HH        -5.554862958         1.949691689         1.294003788    
HH        -4.349364180         2.179178411        0.4724949518E-02
C         -4.128090197        0.3644051384         1.108226235    
O         -4.145437290        0.1613013329         2.322632881    
N         -3.377842607       -0.3359714961        0.2586313422    
H         -3.426172501       -0.9679321208E-01   -0.7204917816    
CA        -2.465712696        -1.412746268        0.6564082174    
HA        -2.993973436        -2.068593557         1.351527473    
CB        -2.114260638        -2.238444389       -0.5895987277    
HB        -1.487396433        -3.086094960       -0.3087707448    
HB        -1.575240817        -1.620328290        -1.309825707    
HB        -3.026642442        -2.617797369        -1.052578661    
C         -1.199979895       -0.8951245991         1.375463256    
O        -0.7568013573        0.2381355523         1.159439330    
N        -0.5713310480        -1.753181878         2.188260068    
H        -0.9753170323        -2.671446332         2.313916323    
CA        0.6194682962        -1.421494560         2.984708956    
HA        0.3918302336       -0.5408294481         3.588217513    
CB        0.8874415841        -2.593228357         3.938318779    
HB         1.120767047        -3.494929488         3.369595810    
HB        0.9923553288E-02    -2.774777594         4.560757042    
HB         1.731825779        -2.353537366         4.586270535    
C          1.872534509        -1.083759018         2.141535730    
O          2.783961647       -0.4085016989         2.628391761    
N          1.908278391        -1.506377232        0.8709713430    
H          1.151580670        -2.093767567        0.5513233050    
CA         2.961770391        -1.171505693       -0.9451097209E-01
HA         3.926168239        -1.229996883        0.4133965526    
CB         2.944564700        -2.244481649        -1.191860242    
HB         3.764206364        -2.070193892        -1.890284422    
HB         1.999870306        -2.208903612        -1.736914116    
HB         3.069217386        -3.233101286       -0.7474206580    
C          2.849234796        0.2568271736       -0.6876512916    
O          3.777498333        0.7011192320        -1.368562786    
N          1.741194935        0.9658314713       -0.4168154892    
H          1.057680852        0.5171322735        0.1797628347    
CA         1.346730139         2.283010876       -0.9386621624    
HA        0.3466607788         2.470719918       -0.5430372775    
CB         2.237363227         3.379210678       -0.3328312110    
HB         1.859029318         4.359549783       -0.6252457108    
HB         2.226598204         3.307320564        0.7555874543    
HB         3.262451546         3.276623167       -0.6899494394    
C          1.219472083         2.364201712        -2.481471463    
O          2.208082217         2.333918521        -3.222876957    
N        -0.2005235016E-01     2.512716763        -2.971084574    
H        -0.7843409507         2.544606636        -2.309332573    
CH       -0.3512229041         2.626565267        -4.392780080    
HH       -0.1885526468E-01     1.734815059        -4.928419318    
HH        0.1402644572         3.501273086        -4.823967783    
HH        -1.430577988         2.731311085        -4.519570290    
    52
Energy=    -37.1738336533367    
HH        -5.853787834        0.6091453199       -0.2425374573E-01
CH        -5.165939857         1.114784960        0.6523281256    
HH        -5.729896816         1.622201150         1.434088790    
HH        -4.578305178         1.843200677        0.9496198737E-01
C         -4.237423186        0.9565521291E-01     1.273811577    
O         -4.207370823       -0.5019972597E-01     2.496198915    
N         -3.481763400       -0.6092288994        0.4328479285    
H         -3.569953799       -0.4174039155       -0.5539117812    
CA        -2.506330789        -1.621592395        0.8490853256    
HA        -2.977324765        -2.262952457         1.596889392    
CB        -2.162506332        -2.495481205       -0.3657676665    
HB        -1.487088141        -3.298331364       -0.6652809857E-01
HB        -1.679343905        -1.892821556        -1.136906559    
HB        -3.072511210        -2.938963155       -0.7730687045    
C         -1.240865685        -1.010255707         1.491009257    
O        -0.8623172171        0.1308347969         1.204585564    
N        -0.5410033507        -1.796710141         2.317897802    
H        -0.8944719736        -2.725614474         2.503248546    
CA        0.6619237455        -1.370287654         3.048056040    
HA        0.4160285263       -0.4703543032         3.614847803    
CB         1.020835771        -2.477066303         4.048234730    
HB         1.274885220        -3.395849391         3.516972557    
HB        0.1770391268        -2.665254669         4.713828039    
HB         1.876839516        -2.165727822         4.648728213    
C          1.864735585        -1.020995434         2.138986012    
O          2.761745207       -0.2816527729         2.554549863    
N          1.872736489        -1.507963841        0.8912515510    
H          1.131594601        -2.142273060        0.6307027456    
CA         2.873309242        -1.176696797       -0.1297354767    
HA         3.858430197        -1.173021103        0.3402887080    
CB         2.857823327        -2.297357282        -1.177993520    
HB         3.640841681        -2.120781192        -1.916650061    
HB         1.891655401        -2.323739091        -1.684533087    
HB         3.041530127        -3.259371823       -0.6972239150    
C          2.676604185        0.2164010727       -0.7803123238    
O          3.568982078        0.6823172606        -1.497118148    
N          1.538885793        0.8817378351       -0.5217989718    
H         0.8765998866        0.4341585165        0.9848307010E-01
CA         1.104422547         2.156893297        -1.112662490    
HA        0.9023347958E-01     2.334596878       -0.7501738922    
CB         1.968114135         3.296062115       -0.5396519185    
HB         1.541084906         4.263109079       -0.8067622164    
HB         2.001769502         3.224437107        0.5485290784    
HB         2.982941947         3.238066587       -0.9343727083    
C         0.9911649701         2.157373982        -2.661746914    
O          1.211029054         1.141206779        -3.332864454    
N         0.5925674215         3.301251176        -3.236998650    
H         0.4136790989         4.089961703        -2.629731997    
CH        0.4034156041         3.496007956        -4.675744328    
HH       -0.3593358890         2.810204088        -5.050507169    
HH         1.339146247         3.307598076        -5.206306644    
HH        0.8494583266E-01     4.520741708        -4.877086178    
