    52
Energy=    -37.9728100101735    
HH        -4.844598253        -1.916272278       -0.3995487361    
CH        -4.746424740        -1.502964679        0.6036502858    
HH        -5.560795259       -0.8043161918        0.7916475304    
HH        -4.783088502        -2.308690871         1.335842159    
C         -3.427987331       -0.7752433020        0.7259683346    
O         -2.653286022       -0.7303165915       -0.2286840562    
N         -3.157835137       -0.2235876543         1.909597011    
H         -3.850953588       -0.3116035463         2.639227899    
CA        -1.966283489        0.5886771659         2.191097824    
HA        -1.939687280         1.414024718         1.477242111    
CB        -2.122161022         1.182071559         3.597504878    
HB        -2.153973331        0.3838130768         4.340955930    
HB        -1.277265526         1.837117324         3.815182104    
HB        -3.041673731         1.766533240         3.654923195    
C        -0.6315699436       -0.1792549272         2.049637830    
O         0.4111934280        0.4322107342         1.799558388    
N        -0.6569068031        -1.515163439         2.144821007    
H         -1.540857536        -1.952282125         2.363971852    
CA        0.5097682930        -2.387460092         1.966918430    
HA         1.294547758        -2.053806399         2.648348124    
CB        0.9856264489E-01    -3.808602741         2.373440521    
HB       -0.6852670875        -4.177316508         1.709639739    
HB       -0.2669676078        -3.810595659         3.401456486    
HB        0.9612099022        -4.473248214         2.307920843    
C          1.102321826        -2.358854436        0.5372019425    
O          2.265831752        -2.724985070        0.3462366435    
N         0.3383359973        -1.892546804       -0.4606790728    
H        -0.6177228525        -1.633478874       -0.2504780221    
CA        0.8033890486        -1.693512132        -1.838329505    
HA         1.451382815        -2.529328104        -2.108342319    
CB       -0.4211682615        -1.737723127        -2.761689664    
HB        -1.079210390       -0.8936374956        -2.551186706    
HB       -0.9893619424E-01    -1.684144063        -3.802325787    
HB       -0.9679535785        -2.669678885        -2.611506959    
C          1.629072340       -0.3980282525        -2.042830528    
O          2.235282660       -0.2260721849        -3.105967166    
N          1.673932473        0.4893456085        -1.035503575    
H          1.167190358        0.2510952063       -0.1934684025    
CA         2.310608214         1.815388430        -1.050775920    
HA         2.053493420         2.291853767       -0.1029278360    
CB         3.840375279         1.637148029        -1.037844485    
HB         4.329295107         2.593552998       -0.8503871312    
HB         4.126319111        0.9443019072       -0.2449884930    
HB         4.184907845         1.247285306        -1.996170415    
C          1.789051265         2.781785630        -2.149378631    
O         0.8732812980         2.463228440        -2.918255538    
N          2.344628190         4.001509771        -2.193059158    
H          3.077083952         4.203446751        -1.525542512    
CH         1.976099514         5.058686637        -3.136609648    
HH        0.9246498130         5.325197329        -3.010141396    
HH         2.587559349         5.946421289        -2.963160808    
HH         2.133200111         4.718019532        -4.162208599    
    52
Energy=    -31.2020724372321    
HH        -5.934024586        -2.415158679         2.288857963    
CH        -5.256349050        -1.855185829         2.932320527    
HH        -5.826201862        -1.149206494         3.535292852    
HH        -4.722807555        -2.543324629         3.586879529    
C         -4.260503641        -1.096633779         2.085071105    
O         -4.301290542        -1.179171377        0.8579753719    
N         -3.358218937       -0.3657531456         2.740343337    
H         -3.411758580       -0.3448873057         3.748982674    
CA        -2.342148308        0.4729901193         2.089986594    
HA        -2.818146076         1.011756111         1.268648244    
CB        -1.864643055         1.510877177         3.115127511    
HB        -1.372333656         1.013206045         3.952204581    
HB        -1.158190419         2.195532792         2.643542867    
HB        -2.714554794         2.086116997         3.485417617    
C         -1.155927818       -0.3143114116         1.482126382    
O        -0.4077845801        0.2499674182        0.6831262994    
N        -0.9947274776        -1.590835917         1.862770562    
H         -1.667029979        -1.914442091         2.542574439    
CA       -0.2161557914E-01    -2.608928612         1.425286603    
HA        0.5099897861        -2.936587837         2.320486919    
CB       -0.8128350909        -3.824516103        0.9162437355    
HB        -1.426581904        -3.548475197        0.5743126708E-01
HB        -1.462183896        -4.201694637         1.707730837    
HB       -0.1227901984        -4.617753579        0.6242305752    
C          1.080310662        -2.184254848        0.4209735728    
O          2.253255999        -2.088232869        0.7949461209    
N         0.7259504642        -1.960658310       -0.8516908599    
H        -0.2533156365        -2.037133487        -1.085505992    
CA         1.669608702        -1.713159448        -1.950286753    
HA         2.483490889        -2.435715584        -1.866994528    
CB        0.9317024414        -1.991881126        -3.266604703    
HB        0.1140958899        -1.280767849        -3.395086833    
HB         1.623432201        -1.892163420        -4.104140197    
HB        0.5321012705        -3.007097792        -3.262400069    
C          2.319842364       -0.3070383691        -1.954590830    
O          3.304980266       -0.9687301195E-01    -2.671027355    
N          1.797379092        0.6337251805        -1.155343014    
H          1.006232012        0.3552503810       -0.5861718747    
CA         2.190116115         2.048277555        -1.070387796    
HA         1.476646455         2.524895869       -0.3957473985    
CB         3.563114989         2.146987832       -0.3796016007    
HB         3.784805892         3.184724163       -0.1290037676    
HB         3.556548756         1.564680871        0.5430639010    
HB         4.346256587         1.768156735        -1.037058559    
C          2.086753181         2.840814570        -2.402281957    
O          1.668253883         2.318494503        -3.443245861    
N          2.426406154         4.137438935        -2.359853864    
H          2.745063083         4.506160149        -1.473674534    
CH         2.376839580         5.056158312        -3.498792057    
HH         1.354770420         5.132088133        -3.875853386    
HH         2.714660871         6.048975383        -3.195102396    
HH         3.023355518         4.694567306        -4.301195799    
    52
Energy=    -34.5658036375656    
HH        -5.494996709        -1.795552045         4.221211539    
CH        -4.555183451        -1.257863015         4.341658805    
HH        -4.710290618       -0.3922558415         4.984611629    
HH        -3.813430503        -1.916130462         4.792365422    
C         -4.057943966       -0.7931619932         2.991838339    
O         -4.701704390        -1.045974389         1.973993739    
N         -2.906099318       -0.1219834154         2.982372985    
H         -2.454602881        0.5028555343E-01     3.869498209    
CA        -2.288563500        0.4477697154         1.777427541    
HA        -3.076952972        0.8863333672         1.163040562    
CB        -1.354979861         1.583591988         2.219597237    
HB       -0.5375700183         1.184660283         2.822510802    
HB       -0.9392585284         2.081466452         1.342625805    
HB        -1.912252331         2.316332485         2.805189942    
C         -1.549255781       -0.5811577704        0.8890755758    
O         -1.181591736       -0.2560472527       -0.2434998520    
N         -1.324470132        -1.806390087         1.384741945    
H         -1.662628267        -1.989210520         2.318189017    
CA       -0.5805884665        -2.887116014        0.7238788776    
HA       -0.3647904522        -3.633312530         1.490621468    
CB        -1.488976736        -3.590624510       -0.3005628766    
HB        -1.790240855        -2.897280794        -1.087053540    
HB        -2.383974484        -3.963247692        0.1997977580    
HB       -0.9610906543        -4.436088235       -0.7445181595    
C         0.8072320324        -2.439561995        0.2019524682    
O          1.719903377        -2.212168741         1.002079129    
N         0.9769913993        -2.291513175        -1.118076251    
H         0.1913344796        -2.489699260        -1.720841008    
CA         2.224989418        -1.844013190        -1.748927944    
HA         3.055080280        -2.389088214        -1.295789300    
CB         2.163233460        -2.229844901        -3.232591377    
HB         1.349641770        -1.695314102        -3.725596649    
HB         3.104443934        -1.969559420        -3.718741669    
HB         2.003483296        -3.304558831        -3.331637056    
C          2.520681978       -0.3339386148        -1.569727533    
O          3.668010145        0.8658116402E-01    -1.754438047    
N          1.511301420        0.4639559394        -1.188574631    
H         0.6126147586        0.2132267347E-01    -1.037773091    
CA         1.547479879         1.924310806        -1.020463129    
HA        0.5208725943         2.238344157       -0.8239438049    
CB         2.348113184         2.256617540        0.2524731342    
HB         2.226868338         3.309028244        0.5105090349    
HB         1.984048500         1.655054672         1.086856469    
HB         3.407691811         2.050272309        0.9757835192E-01
C          1.983851714         2.721122636        -2.280676040    
O          2.195367941         2.162997504        -3.364773217    
N          2.068133226         4.053524442        -2.153987738    
H          1.865596187         4.448371076        -1.245257578    
CH         2.437543971         4.977383795        -3.228105499    
HH         1.722546757         4.902732752        -4.050162063    
HH         2.440138753         6.003814528        -2.855984247    
HH         3.434242310         4.736782729        -3.603993483    
