    52
Energy=    -35.7466159180923    
HH        -4.761647234        -4.959354702        0.6605042102    
CH        -4.119641157        -4.225311085        0.1749966437    
HH        -3.124974961        -4.647720824        0.3775456184E-01
HH        -4.539438585        -3.958266795       -0.7941788373    
C         -4.024501470        -2.992990644         1.045651133    
O         -4.394730950        -1.901193894        0.6154662735    
N         -3.521133458        -3.167936827         2.267593873    
H         -3.260230554        -4.105290714         2.538935050    
CA        -3.378751249        -2.101525934         3.268012022    
HA        -4.244673622        -1.441393563         3.192636375    
CB        -3.411644516        -2.754961804         4.656550409    
HB        -2.551649432        -3.414931234         4.780998765    
HB        -3.382110500        -1.983568913         5.427306985    
HB        -4.330272450        -3.331652226         4.774397436    
C         -2.122860615        -1.214958115         3.081063441    
O         -2.001585706       -0.1699773145         3.729544399    
N         -1.186314113        -1.613605952         2.211393321    
H         -1.350072545        -2.471962212         1.707435036    
CA        0.5095252838E-01   -0.8804448240         1.925281141    
HA        0.4951982313       -0.5777271754         2.875838131    
CB         1.034451550        -1.837477281         1.236991178    
HB        0.6336996598        -2.158102562        0.2737803787    
HB         1.202934183        -2.712682453         1.866551507    
HB         1.989370948        -1.335302960         1.075450494    
C        -0.1812189721        0.4013266189         1.092418105    
O         -1.156193252        0.5131439650        0.3410348595    
N         0.7468187470         1.360349994         1.194448311    
H          1.518254662         1.211520349         1.830554442    
CA        0.6825597972         2.649793146        0.4928974251    
HA       -0.3382010266         3.029964371        0.5640362033    
CB         1.599968597         3.631828641         1.233260790    
HB         2.635764591         3.293211836         1.176955090    
HB         1.524575700         4.619645529        0.7765772066    
HB         1.299078601         3.706048277         2.279346346    
C          1.033663656         2.573996630        -1.013255122    
O         0.6816138271         3.488178890        -1.766563348    
N          1.693409422         1.489253806        -1.449849591    
H          1.926873591        0.7951999365       -0.7560341532    
CA         2.190166378         1.247350717        -2.814347094    
HA         2.770766022        0.3237733715        -2.776462855    
CB        0.9901681491        0.9605829240        -3.736434050    
HB         1.336278736        0.5853737688        -4.699933591    
HB        0.4114511233         1.870344102        -3.899375864    
HB        0.3476958317        0.2034909456        -3.284229735    
C          3.170005773         2.324847751        -3.355573353    
O          3.560420801         3.263920764        -2.650421998    
N          3.617326154         2.160669136        -4.609117448    
H          3.272078256         1.362483380        -5.125356258    
CH         4.560271355         3.051719325        -5.287911104    
HH         5.506654438         3.081965314        -4.743827644    
HH         4.748922939         2.695733648        -6.302669316    
HH         4.150452421         4.062622674        -5.340120183    
    52
Energy=    -33.7564953535117    
HH        -6.007842158        -3.448278774         2.464693512    
CH        -5.398666987        -3.064357491         1.647245987    
HH        -4.874450755        -3.889666213         1.166921361    
HH        -6.037647806        -2.565171899        0.9196653782    
C         -4.389302273        -2.082313065         2.196660472    
O         -4.381430453       -0.9163787734         1.803094925    
N         -3.530052764        -2.556005239         3.099196058    
H         -3.619485807        -3.524410493         3.372286197    
CA        -2.508469011        -1.744637049         3.774307227    
HA        -2.964764423       -0.7999073798         4.075461579    
CB        -2.085474423        -2.488209274         5.048572559    
HB        -1.614625797        -3.438116050         4.790233271    
HB        -1.374569660        -1.880352944         5.610031725    
HB        -2.957678278        -2.675712636         5.676636826    
C         -1.288533312        -1.393725477         2.888755303    
O        -0.5183380685       -0.4894229828         3.227563139    
N         -1.105215621        -2.084959309         1.756625245    
H         -1.772035300        -2.811010063         1.539923265    
CA       -0.2135728867E-01    -1.852830288        0.7988540920    
HA        0.8894237845        -1.608363855         1.349544010    
CB        0.2445300511        -3.164875423        0.4486481329E-01
HB       -0.6459114521        -3.473990715       -0.5049589273    
HB        0.5190456660        -3.948888129        0.7521572426    
HB         1.066301271        -3.023181076       -0.6585052086    
C        -0.3383041536       -0.6608111299       -0.1329264249    
O        -0.9109599096       -0.8248019845        -1.215505279    
N         0.3186795033E-01    0.5511891427        0.2954841998    
H         0.4492611765        0.6187843518         1.214355870    
CA       -0.2418848915         1.803822252       -0.4209104747    
HA        -1.266529204         1.769221256       -0.7956818682    
CB       -0.1543922355         2.950330124        0.5949156068    
HB        0.8606618447         3.026705515        0.9879659912    
HB       -0.4189676942         3.891092761        0.1102164282    
HB       -0.8488379439         2.772550294         1.417443216    
C         0.6778468755         2.056293180        -1.640416376    
O         0.3286809491         2.863244690        -2.508809457    
N          1.821743775         1.357957744        -1.718687991    
H          2.010382681        0.7176431376       -0.9621099267    
CA         2.871670247         1.494595548        -2.741599961    
HA         3.698081474        0.8538351706        -2.428582353    
CB         2.353450377        0.9068799298        -4.067712343    
HB         3.170621072        0.8136697511        -4.783571427    
HB         1.583801635         1.551751223        -4.493038379    
HB         1.934063955       -0.8540922437E-01    -3.894773392    
C          3.482396165         2.917638896        -2.867991719    
O          3.158524446         3.836267523        -2.104615659    
N          4.419504364         3.091973059        -3.811320008    
H          4.650320406         2.295585023        -4.390366449    
CH         5.127215279         4.347324465        -4.070399073    
HH         5.682620383         4.655670712        -3.182124669    
HH         5.828698117         4.218960767        -4.897135686    
HH         4.415014025         5.132800222        -4.331932450    
    52
Energy=    -37.9728100101736    
HH        -4.138133742        0.3342069385         3.867845796    
CH        -4.090969824       -0.1571074844         2.896744506    
HH        -4.428516457        -1.188168511         2.994822533    
HH        -4.729769893        0.3706770352         2.189462763    
C         -2.664002034       -0.1427800902         2.400382772    
O         -2.383242118        0.4045448455         1.334948123    
N         -1.761483179       -0.7659222108         3.158958155    
H         -2.081241141        -1.191114309         4.017729220    
CA       -0.3191680021       -0.7874690740         2.879539376    
HA        0.2979595869E-01    0.2443099651         2.807761269    
CB        0.3826508708        -1.444017111         4.075695920    
HB        0.5672827927E-01    -2.480237529         4.180432786    
HB         1.462799342        -1.424779113         3.923295418    
HB        0.1487321470       -0.8971720537         4.990375353    
C         0.5600794477E-01    -1.488632254         1.553340257    
O          1.104913654        -1.194757689        0.9726338004    
N        -0.8124630582        -2.366186770         1.033715838    
H         -1.646027338        -2.571288683         1.566231128    
CA       -0.6330155677        -3.060564611       -0.2466433243    
HA        0.3321911511        -3.570058555       -0.2281518916    
CB        -1.731610864        -4.125562387       -0.3600666312    
HB        -2.713985799        -3.650885106       -0.3843840715    
HB        -1.679364664        -4.806295443        0.4909950625    
HB        -1.592199042        -4.700578145        -1.276651567    
C        -0.6304654181        -2.119596980        -1.475708272    
O        -0.1239332919        -2.495509967        -2.537023197    
N         -1.149031292       -0.8910125702        -1.339497202    
H         -1.576876752       -0.6475890530       -0.4546003418    
CA        -1.106940987        0.1469908117        -2.376120197    
HA        -1.289525566       -0.3236550109        -3.343873558    
CB        -2.257760757         1.126555710        -2.111251047    
HB        -2.094409780         1.649527737        -1.168050001    
HB        -2.309747403         1.859193309        -2.917580570    
HB        -3.204473938        0.5863444807        -2.066792764    
C         0.2556901574        0.8779807194        -2.479764549    
O         0.4712517662         1.627088420        -3.438769347    
N          1.170897211        0.6490087140        -1.523668178    
H         0.9145969326        0.4120952278E-03   -0.7914068525    
CA         2.479344742         1.304552834        -1.374652167    
HA         2.897589319        0.9474144541       -0.4317487359    
CB         3.423514980        0.7962153951        -2.480210732    
HB         4.446906946         1.112252119        -2.276046596    
HB         3.119589840         1.191600951        -3.449944715    
HB         3.401382920       -0.2940871582        -2.514427092    
C          2.427544645         2.851153461        -1.239684106    
O          1.355658473         3.468976156        -1.214382675    
N          3.601478844         3.484078343        -1.099736685    
H          4.439667757         2.918282665        -1.112505993    
CH         3.761424977         4.930301391       -0.9367030263    
HH         3.247581177         5.265525967       -0.3328857020E-01
HH         4.820164421         5.183846887       -0.8540838966    
HH         3.340253752         5.453986264        -1.797491523    
