    52
Energy=    -35.9281441273810    
HH        -6.891232849       -0.4823035327        0.7015879140    
CH        -6.075583555        -1.202676888        0.7512290707    
HH        -6.455454314        -2.159935085         1.106109708    
HH        -5.640151694        -1.329701019       -0.2391510579    
C         -5.012260792       -0.7037180231         1.703994138    
O         -5.157132180        0.3748253731         2.280125753    
N         -3.947985348        -1.489153785         1.864139219    
H         -3.918884409        -2.349685453         1.335884771    
CA        -2.797255414        -1.195685881         2.726558713    
HA        -2.721036072       -0.1151973062         2.863676510    
CB        -3.039815818        -1.836637890         4.101559602    
HB        -3.115954718        -2.920508311         4.000857020    
HB        -2.214189346        -1.598597775         4.773627530    
HB        -3.964459470        -1.450751628         4.533123112    
C         -1.465954117        -1.675692339         2.107407901    
O         -1.447862374        -2.578972803         1.264168151    
N        -0.3496579631        -1.075437859         2.544095696    
H        -0.4554499991       -0.3627656504         3.253765313    
CA         1.024613121        -1.378663262         2.110144544    
HA         1.649783846       -0.5772310868         2.507693983    
CB         1.495961258        -2.673157715         2.794743916    
HB        0.9384981511        -3.527172219         2.408301226    
HB         1.341261058        -2.600898292         3.872120530    
HB         2.558977414        -2.826780819         2.604780312    
C          1.253350760        -1.334365571        0.5756207536    
O          2.090432697        -2.064246323        0.3414076385E-01
N         0.5090378738       -0.4762587010       -0.1350695625    
H        -0.1602234195        0.9124847787E-01    0.3653373290    
CA        0.5234676518       -0.3794010458        -1.600693925    
HA        0.5547795614        -1.390226606        -2.011508583    
CB       -0.8008764820        0.2610930265        -2.038050987    
HB       -0.8710014484         1.280309171        -1.654557058    
HB       -0.8544992547        0.2870314435        -3.127401241    
HB        -1.639845901       -0.3259154284        -1.660891612    
C          1.741260756        0.3804217168        -2.178876439    
O          2.030052280        0.2554610913        -3.372848602    
N          2.453839211         1.157016823        -1.348173883    
H          2.149877320         1.196727041       -0.3859417421    
CA         3.645799474         1.945311366        -1.701753496    
HA         3.841788606         2.593706212       -0.8460691556    
CB         4.857910248         1.004948276        -1.815244053    
HB         5.771961545         1.590558837        -1.920554304    
HB         4.937830004        0.3919652737       -0.9165092383    
HB         4.749319645        0.3555781895        -2.684600990    
C          3.461833684         2.918480187        -2.897948138    
O          4.407389776         3.191963401        -3.647241998    
N          2.242421129         3.445660540        -3.085937251    
H          1.519804182         3.180015717        -2.431054538    
CH         1.881015056         4.367734139        -4.163854914    
HH        0.8281021952         4.644996823        -4.083357282    
HH         2.489246648         5.272712855        -4.103872196    
HH         2.047152086         3.893972114        -5.133631234    
    52
Energy=    -31.1250052011593    
HH        -7.055540608       -0.7365161270         1.427888721    
CH        -6.218704928        -1.420678675         1.292564017    
HH        -6.527431818        -2.431358853         1.556756822    
HH        -5.895167430        -1.400249556        0.2526143355    
C         -5.069073814        -1.001779227         2.181524132    
O         -5.179158452       -0.1352960877E-01     2.907764034    
N         -3.970852725        -1.753637339         2.119389075    
H         -3.976694973        -2.537110424         1.481774844    
CA        -2.738657983        -1.522888121         2.882621938    
HA        -2.679010631       -0.4665754596         3.152277088    
CB        -2.804540453        -2.344756509         4.178958430    
HB        -2.859860397        -3.409078353         3.944709408    
HB        -1.915226087        -2.158802754         4.782728838    
HB        -3.685057971        -2.058289125         4.755800206    
C         -1.472843488        -1.860765186         2.064278944    
O         -1.524267907        -2.646651409         1.111902147    
N        -0.3321254978        -1.273363332         2.452639740    
H        -0.3773905923       -0.6629620458         3.257684751    
CA        0.9922861151        -1.458463982         1.835821160    
HA         1.635045624       -0.6881766273         2.265624050    
CB         1.575497907        -2.808227167         2.287996874    
HB         1.002901923        -3.629121728         1.854744454    
HB         1.541753316        -2.881503613         3.375831873    
HB         2.614179706        -2.889725290         1.965209975    
C          1.044471364        -1.207937807        0.3049816086    
O          1.836216245        -1.824774164       -0.4155554760    
N         0.2001714504       -0.2987560866       -0.2011356538    
H        -0.4263554364        0.1684286764        0.4388634763    
CA        0.4964926032E-01   -0.1026239779E-01    -1.633996003    
HA        0.5219622161E-01   -0.9577352763        -2.176059954    
CB        -1.326666091        0.6382764781        -1.835777746    
HB        -1.370230576         1.597216816        -1.316837150    
HB        -1.503218906        0.8020945241        -2.899781745    
HB        -2.107499863       -0.1857231874E-01    -1.449143892    
C          1.183199020        0.8563759976        -2.235932587    
O          1.324547932        0.8939085986        -3.460822080    
N          1.960599619         1.539768878        -1.379549606    
H          1.708605844         1.444019660       -0.4073226534    
CA         3.159319609         2.360045968        -1.632833708    
HA         2.945560625         3.368325761        -1.273111320    
CB         4.287664611         1.800190707       -0.7519290409    
HB         5.185315078         2.408001831       -0.8742161173    
HB         3.989457805         1.824417961        0.2971675325    
HB         4.511751269        0.7706979579        -1.036087776    
C          3.608507869         2.495522006        -3.111391227    
O          4.322609099         1.638603681        -3.648901356    
N          3.214314442         3.600578938        -3.760618838    
H          2.633127673         4.256695458        -3.255944267    
CH         3.545696518         3.916590338        -5.150944250    
HH         3.099201896         4.871370319        -5.435604009    
HH         4.628787465         3.983722749        -5.273150938    
HH         3.162941418         3.137395060        -5.813471083    
    52
Energy=    -37.0312767121071    
HH        -7.002621349       -0.7536938657         2.186856665    
CH        -6.205585023        -1.429735370         1.879635307    
HH        -6.492843200        -2.456863509         2.101161878    
HH        -6.030193879        -1.324706685        0.8096828136    
C         -4.935542635        -1.094186944         2.629152484    
O         -4.924931786       -0.1692860937         3.441940072    
N         -3.870763027        -1.845554565         2.351815308    
H         -3.980026404        -2.573039524         1.659546841    
CA        -2.539894792        -1.687384803         2.949999026    
HA        -2.423954313       -0.6577361788         3.294162278    
CB        -2.438462872        -2.614362576         4.170932475    
HB        -2.545346376        -3.654979223         3.860442299    
HB        -1.470110786        -2.485277158         4.656347510    
HB        -3.224160636        -2.371491065         4.887739147    
C         -1.407553199        -1.963709775         1.936323795    
O         -1.605939432        -2.667767559        0.9402141715    
N        -0.2135754574        -1.417019154         2.205911619    
H        -0.1345326526       -0.8754472414         3.056298426    
CA         1.007126588        -1.556551741         1.393961782    
HA         1.717290354       -0.8286382300         1.790183205    
CB         1.624961928        -2.942684398         1.645664867    
HB        0.9829220354        -3.721086129         1.231785818    
HB         1.743765182        -3.107132082         2.717450225    
HB         2.606141861        -3.002213148         1.173007847    
C         0.8466772730        -1.178143282       -0.1028842710    
O          1.516191202        -1.738305029       -0.9772309543    
N        -0.4541558616E-01   -0.2253560383       -0.4055552566    
H        -0.5647974442        0.1897127941        0.3547595703    
CA       -0.3886165902        0.1938076485        -1.771140912    
HA       -0.3732086212       -0.6863680365        -2.416417849    
CB        -1.828454925        0.7248038543        -1.746594836    
HB        -1.888818549         1.618276007        -1.123090731    
HB        -2.144808937        0.9767763943        -2.759740526    
HB        -2.499572704       -0.3902669970E-01    -1.350629256    
C         0.5914663923         1.220118738        -2.390032809    
O         0.5477164633         1.463606383        -3.600714581    
N          1.471147908         1.825995415        -1.582895945    
H          1.459702093         1.579426239       -0.6051677555    
CA         2.465694036         2.809001156        -2.024844212    
HA         1.970934618         3.519130808        -2.690666611    
CB         2.955967858         3.589714299       -0.7976157177    
HB         3.652058632         4.369554604        -1.109692076    
HB         2.109749455         4.057710581       -0.2922535844    
HB         3.464095306         2.917348673       -0.1043945478    
C          3.637610693         2.174975991        -2.811068799    
O          3.971023238        0.9973701708        -2.628613017    
N          4.286841143         2.972021832        -3.671102210    
H          3.964319125         3.927045080        -3.756656458    
CH         5.427234864         2.563700084        -4.493291582    
HH         5.764995581         3.400150269        -5.108372259    
HH         6.252678335         2.239540469        -3.855986782    
HH         5.141419311         1.737958413        -5.148321890    
