    52
Energy=    -35.9038044712798    
HH        -4.340515244        0.2997229222         6.821481544    
CH        -3.288795246        0.5269734492E-01     6.960912501    
HH        -2.672141262        0.8769301746         6.604615875    
HH        -3.091691341       -0.1199560801         8.018276350    
C         -2.960269250        -1.194603271         6.170942938    
O         -2.537690992        -2.196855650         6.748317695    
N         -3.154879027        -1.127945922         4.854593928    
H         -3.491469419       -0.2544712447         4.475429246    
CA        -2.890112395        -2.211197237         3.900459466    
HA        -2.128749870        -2.873943983         4.316440236    
CB        -4.181272636        -3.022262015         3.711703963    
HB        -3.999023868        -3.859922491         3.037227075    
HB        -4.517738110        -3.414047158         4.672612235    
HB        -4.962367784        -2.388278743         3.289135595    
C         -2.353188204        -1.685018381         2.550026082    
O         -2.574340325       -0.5215395902         2.192182943    
N         -1.683162886        -2.565612915         1.792561090    
H         -1.581329205        -3.500193112         2.162235275    
CA        -1.011666249        -2.291556666        0.5109954341    
HA       -0.4743087755        -3.201787882        0.2384072065    
CB        -2.082116877        -2.084066668       -0.5772743991    
HB        -2.807931289        -2.897977832       -0.5433413178    
HB        -2.599587285        -1.136358084       -0.4246366195    
HB        -1.620136356        -2.078566924        -1.564986587    
C         0.6971922233E-01    -1.177992827        0.5640435041    
O         0.3984983374       -0.6415762307         1.628957146    
N         0.6650705236       -0.8643146494       -0.5926184384    
H         0.3530141262        -1.342106316        -1.426479137    
CA         1.712865973        0.1492659317       -0.7667587691    
HA         1.628177144        0.8937182072        0.2737993011E-01
CB         3.081146393       -0.5374046859       -0.6382434589    
HB         3.200449344        -1.283573700        -1.425429010    
HB         3.878059448        0.2023349637       -0.7256486950    
HB         3.162370622        -1.025261508        0.3340905886    
C          1.582507837        0.8976416492        -2.112276498    
O         0.9604200804        0.4030045395        -3.060057689    
N          2.186023561         2.087412414        -2.202583425    
H          2.692284344         2.426615807        -1.397496695    
CA         2.206981595         2.914061948        -3.414052883    
HA         1.197763619         2.936863569        -3.830447817    
CB         2.576662661         4.349871413        -3.016792365    
HB         2.538923657         4.997553350        -3.893796107    
HB         1.869595513         4.723913487        -2.274767814    
HB         3.584859032         4.375285350        -2.600033461    
C          3.148144539         2.356992445        -4.508558001    
O          4.114270349         1.639251262        -4.220006846    
N          2.880096647         2.713229592        -5.772497439    
H          2.080003170         3.312293099        -5.928660053    
CH         3.659370091         2.301516481        -6.941456405    
HH         3.225996974         2.725290388        -7.849565925    
HH         3.661186219         1.212818607        -7.027137789    
HH         4.690023175         2.650106620        -6.847424201    
    52
Energy=    -35.1372018465684    
HH        -4.069464909       -0.1956903289         7.698877954    
CH        -3.294771071        0.4566309602E-01     6.972486169    
HH        -3.650230889        0.8451738128         6.323300802    
HH        -2.393709653        0.3768040360         7.486771191    
C         -2.973866389        -1.193733178         6.164592934    
O         -2.556374665        -2.200234684         6.737809098    
N         -3.165150235        -1.124002865         4.847111565    
H         -3.497238604       -0.2495803683         4.466600432    
CA        -2.901719370        -2.207102796         3.892238551    
HA        -2.142592694        -2.872273275         4.308439679    
CB        -4.194693237        -3.014632380         3.700607411    
HB        -4.013579836        -3.851998040         3.025455972    
HB        -4.533626795        -3.406664870         4.660546807    
HB        -4.973533496        -2.378185166         3.277577715    
C         -2.361595403        -1.680772665         2.543143964    
O         -2.579263394       -0.5162659222         2.186520846    
N         -1.692882699        -2.562169453         1.785461502    
H         -1.593969273        -3.497475964         2.154097882    
CA        -1.019015550        -2.288279329        0.5051026651    
HA       -0.4837223102        -3.199590113        0.2320591040    
CB        -2.087508245        -2.076585392       -0.5842787996    
HB        -2.815504743        -2.888625650       -0.5523215944    
HB        -2.602679223        -1.127712207       -0.4310972462    
HB        -1.624237263        -2.071039672        -1.571386357    
C         0.6524531542E-01    -1.177653338        0.5609206365    
O         0.3938838282       -0.6432371940         1.626881736    
N         0.6631062996       -0.8643239527       -0.5945400386    
H         0.3510007246        -1.340401849        -1.429362575    
CA         1.713839149        0.1466571636       -0.7660769358    
HA         1.629968490        0.8904887142        0.2873005311E-01
CB         3.080104640       -0.5437786851       -0.6363036057    
HB         3.198574206        -1.289426443        -1.424108705    
HB         3.879103755        0.1939353620       -0.7217627447    
HB         3.158618187        -1.032880350        0.3356276192    
C          1.587427813        0.8968032373        -2.110985458    
O         0.9654095108        0.4048261612        -3.060195652    
N          2.194231532         2.085061436        -2.199149001    
H          2.700218069         2.422064676        -1.392966604    
CA         2.219149427         2.912936391        -3.409706432    
HA         1.210603303         2.938860699        -3.827543988    
CB         2.592062431         4.347336629        -3.010381149    
HB         2.557321140         4.996046012        -3.886749146    
HB         1.884910591         4.722468974        -2.268987966    
HB         3.599714443         4.369630007        -2.592129787    
C          3.160423594         2.354529253        -4.503434011    
O          4.124219274         1.633918910        -4.214242200    
N          2.895163896         2.712816617        -5.767382171    
H          2.096891911         3.314168445        -5.924070513    
CH         3.675043615         2.300274150        -6.935644222    
HH         3.244119919         2.726159349        -7.843931644    
HH         3.674094949         1.211666678        -7.022480493    
HH         4.706480232         2.646026122        -6.839743249    
    52
Energy=    -35.9038044712790    
HH        -3.106268309       -0.1289264817         8.012501264    
CH        -3.300394684        0.4892500201E-01     6.955448162    
HH        -4.350208849        0.3034467800         6.815139711    
HH        -2.677666936        0.8703474583         6.603248671    
C         -2.978793752        -1.197614509         6.161437990    
O         -2.563877590        -2.204772304         6.735826000    
N         -3.170682500        -1.124819035         4.845014650    
H         -3.500810315       -0.2477365045         4.468505933    
CA        -2.911466387        -2.206285673         3.887338156    
HA        -2.155241039        -2.875605127         4.302164431    
CB        -4.207655530        -3.008050683         3.693389558    
HB        -4.029807803        -3.844414810         3.016134806    
HB        -4.548374612        -3.401126377         4.652269806    
HB        -4.983792649        -2.367338453         3.271835936    
C         -2.368727928        -1.678718204         2.539773828    
O         -2.581531581       -0.5124857052         2.185854013    
N         -1.703256368        -2.560951326         1.780204089    
H         -1.608269028        -3.497542434         2.146596977    
CA        -1.027741595        -2.286647090        0.5008049898    
HA       -0.4959693692        -3.199419638        0.2257725710    
CB        -2.094909023        -2.068042029       -0.5885128550    
HB        -2.826168982        -2.877230972       -0.5588224341    
HB        -2.606338613        -1.117483757       -0.4332575306    
HB        -1.631196240        -2.061975965        -1.575409646    
C         0.6092038076E-01    -1.180497520        0.5598072347    
O         0.3914130577       -0.6502019301         1.627253117    
N         0.6603391920       -0.8665267981       -0.5946725115    
H         0.3465587735        -1.339160898        -1.430822379    
CA         1.715140664        0.1407020649       -0.7632833123    
HA         1.634024121        0.8827722764        0.3345351681E-01
CB         3.078607572       -0.5555152875       -0.6349733962    
HB         3.194313944        -1.299557817        -1.424704508    
HB         3.880564496        0.1792285593       -0.7182885500    
HB         3.154910267        -1.047477235        0.3356895192    
C          1.592080013        0.8948756634        -2.106248562    
O         0.9683609143        0.4078760981        -3.056908410    
N          2.203637185         2.080933625        -2.191133060    
H          2.710746615         2.413799034        -1.383937788    
CA         2.232177810         2.911879335        -3.399504521    
HA         1.223854792         2.942920576        -3.817531680    
CB         2.610697181         4.343728067        -2.996315830    
HB         2.578775757         4.994870289        -3.870985206    
HB         1.904847565         4.719727419        -2.254121333    
HB         3.618318103         4.360906437        -2.577748333    
C          3.171511707         2.352599359        -4.494453532    
O          4.132350238         1.627395694        -4.206908372    
N          2.908020371         2.715259924        -5.757524038    
H          2.112193408         3.320198552        -5.912837023    
CH         3.686562263         2.302681774        -6.926665460    
HH         3.257584270         2.732667986        -7.833941170    
HH         3.681295555         1.214318717        -7.016363733    
HH         4.719343764         2.644063672        -6.829589753    
