    52
Energy=    -40.6448843121848    
HH        -5.025634104       -0.2317572231         1.091494186    
CH        -4.306542950       -0.9613280882        0.7209947398    
HH        -4.423981057        -1.896600654         1.266996025    
HH        -4.476579720        -1.134369479       -0.3410947493    
C         -2.907557659       -0.4318273944        0.9305706600    
O         -2.155412576       -0.2712776936       -0.2929733917E-01
N         -2.543760076       -0.1841764372         2.189219071    
H         -3.224708418       -0.3489076425         2.917096100    
CA        -1.258230896        0.4119904840         2.576343886    
HA        -1.163308966         1.375551735         2.072657842    
CB        -1.293652621        0.6685837279         4.088488510    
HB        -1.391673453       -0.2749714594         4.627981869    
HB       -0.3709535904         1.161286019         4.398632176    
HB        -2.136215364         1.315945323         4.336299374    
C        -0.2811713904E-01   -0.4363465662         2.179522712    
O          1.053711201        0.1116261507         1.953129192    
N        -0.1926803900        -1.756966601         2.029871988    
H         -1.097763594        -2.146693069         2.253266530    
CA        0.8518923733        -2.674652445         1.559307716    
HA         1.762989692        -2.482206225         2.128887232    
CB        0.3926753264        -4.105463019         1.869110510    
HB       -0.5152526433        -4.338127607         1.310153082    
HB        0.1971545298        -4.210280345         2.937380202    
HB         1.174720964        -4.811362078         1.585803363    
C          1.203998615        -2.504658046        0.6093873553E-01
O          2.275190679        -2.940962196       -0.3714372057    
N         0.3289781734        -1.860421599       -0.7239552107    
H        -0.5397986470        -1.550524787       -0.3050336656    
CA        0.5067201390        -1.573651415        -2.153619049    
HA         1.402504661        -2.083321889        -2.511435369    
CB       -0.6922897766        -2.171903039        -2.903079561    
HB        -1.611762468        -1.669392418        -2.599117515    
HB       -0.5566298256        -2.047026590        -3.978083031    
HB       -0.7738388936        -3.237162978        -2.682472521    
C         0.7098210641       -0.6975577875E-01    -2.466446175    
O         0.8496431032        0.3079903052        -3.634867506    
N         0.7265667247        0.7947145316        -1.444357039    
H         0.6335287244        0.4236546673       -0.5113950280    
CA        0.9018429932         2.243306105        -1.578659022    
HA        0.2927012071         2.585031634        -2.418029488    
CB        0.3586060672         2.916157197       -0.3104571722    
HB       -0.6826214913         2.629406231       -0.1551393884    
HB        0.4110370387         4.000611360       -0.4157776128    
HB        0.9501511403         2.615532457        0.5555128994    
C          2.365019603         2.650945728        -1.872440789    
O          3.312471230         1.922698269        -1.550501185    
N          2.551451578         3.837609931        -2.466904292    
H          1.728606431         4.382169456        -2.690057085    
CH         3.855935335         4.403791718        -2.814582032    
HH         3.727333358         5.377290134        -3.291875511    
HH         4.462196202         4.530058356        -1.915087278    
HH         4.381518464         3.740143041        -3.504456783    
    52
Energy=    -36.8417334645547    
HH        -5.127958026       -0.5971689501         1.255641849    
CH        -4.355509978        -1.246947998        0.8460664264    
HH        -4.363424997        -2.198878051         1.375610172    
HH        -4.545218896        -1.416492003       -0.2132575208    
C         -3.007317584       -0.5884606531         1.020576082    
O         -2.308183459       -0.3378536712        0.4003844810E-01
N         -2.624841693       -0.3298415579         2.271354444    
H         -3.260423475       -0.5716441938         3.018452057    
CA        -1.387281396        0.3775480747         2.625429800    
HA        -1.400376522         1.353916752         2.137928908    
CB        -1.390991433        0.6045148975         4.142759690    
HB        -1.382106169       -0.3528691847         4.666489135    
HB       -0.5067573323         1.175256568         4.430321966    
HB        -2.279896573         1.166877393         4.432569267    
C        -0.1002032910       -0.3475701934         2.169333787    
O         0.9137686517        0.3017886771         1.900186602    
N        -0.1444277130        -1.677820883         2.021523764    
H        -0.9984595926        -2.151844990         2.280144341    
CA        0.9669757219        -2.492830058         1.517576041    
HA         1.877135569        -2.200206293         2.044424749    
CB        0.6692913091        -3.957275908         1.865066890    
HB       -0.2332215412        -4.290011943         1.349648228    
HB        0.5311328361        -4.063296279         2.942143737    
HB         1.506362020        -4.585083684         1.556307526    
C          1.236424907        -2.313787196        0.3806764325E-02
O          2.335364444        -2.625553563       -0.4650356193    
N         0.2600558319        -1.799866324       -0.7575124493    
H        -0.6208452754        -1.575145051       -0.3113968986    
CA        0.3612599906        -1.531360940        -2.198038938    
HA         1.187560331        -2.112841061        -2.610063725    
CB       -0.9274982749        -2.035424584        -2.862158288    
HB        -1.783253822        -1.460663314        -2.505499267    
HB       -0.8518645684        -1.924595796        -3.944616068    
HB        -1.078110249        -3.090209768        -2.627929953    
C         0.6530556813       -0.4934979630E-01    -2.538403837    
O         0.8813417252        0.2835057700        -3.706371427    
N         0.6529029466        0.8436141825        -1.540985616    
H         0.4836738150        0.5046555734       -0.6064087723    
CA        0.9337483815         2.274492338        -1.700044833    
HA        0.4465589803         2.611570469        -2.617474423    
CB        0.2931839257         3.052164408       -0.5340640701    
HB       -0.4826324412         3.713155165       -0.9225823055    
HB         1.042154976         3.658149602       -0.2178676789E-01
HB       -0.1601452074         2.376701795        0.1923031969    
C          2.443104602         2.577358478        -1.858837329    
O          3.304551289         1.795193874        -1.437515215    
N          2.764083905         3.735608218        -2.451928296    
H          2.004105213         4.328839613        -2.758602718    
CH         4.130546775         4.206734905        -2.684083359    
HH         4.113029265         5.175769031        -3.186788269    
HH         4.657718447         4.312702027        -1.733585522    
HH         4.671858269         3.494775876        -3.310732383    
    52
Energy=    -40.6448843121902    
HH        -5.020680460       -0.2662420209         1.106320472    
CH        -4.296748186       -0.9919759619        0.7377178613    
HH        -4.405218169        -1.925260789         1.288950637    
HH        -4.468224649        -1.171984750       -0.3229812329    
C         -2.901503466       -0.4501834200        0.9407102185    
O         -2.153235425       -0.2886884620       -0.2202511596E-01
N         -2.536347657       -0.1929765053         2.197046689    
H         -3.214007034       -0.3593085683         2.927624132    
CA        -1.254616221        0.4155086167         2.577541448    
HA        -1.168775420         1.377123679         2.068534653    
CB        -1.288060715        0.6797988722         4.088404867    
HB        -1.377065184       -0.2616466311         4.633121419    
HB       -0.3685215146         1.181510400         4.393448048    
HB        -2.135127816         1.321689894         4.335087819    
C        -0.1879668012E-01   -0.4250313551         2.181858165    
O          1.057990744        0.1303869011         1.949651168    
N        -0.1731541122        -1.747700020         2.039608144    
H         -1.074480846        -2.143479076         2.267503979    
CA        0.8774908250        -2.659461972         1.571051150    
HA         1.788531048        -2.456714423         2.137137580    
CB        0.4306006484        -4.092248236         1.889625528    
HB       -0.4769191867        -4.335130731         1.334364097    
HB        0.2387790312        -4.192980605         2.958958330    
HB         1.217527773        -4.793346679         1.607919163    
C          1.224221322        -2.494574505        0.7085897092E-01
O          2.297722818        -2.924562096       -0.3621166820    
N         0.3419669634        -1.861526831       -0.7150403650    
H        -0.5281479653        -1.556390313       -0.2954022183    
CA        0.5135855113        -1.580902903        -2.146670667    
HA         1.412474000        -2.085263944        -2.504226042    
CB       -0.6825796752        -2.192695509        -2.889718105    
HB        -1.605241686        -1.695968243        -2.585914361    
HB       -0.5507956059        -2.072420570        -3.965727911    
HB       -0.7549869575        -3.257393587        -2.663285655    
C         0.7037732463       -0.7710283756E-01    -2.467960053    
O         0.8374403546        0.2955698520        -3.638728553    
N         0.7163070292        0.7928646014        -1.450485188    
H         0.6287402074        0.4260080443       -0.5153339049    
CA        0.8795915079         2.242083884        -1.592885986    
HA        0.2654887157         2.574476116        -2.432389407    
CB        0.3343577109         2.917255105       -0.3267758740    
HB        0.3778017025         4.001522682       -0.4379454843    
HB        0.9306052902         2.625961084        0.5391580700    
HB       -0.7041166193         2.622995987       -0.1671287690    
C          2.338659876         2.659875190        -1.892775127    
O          3.292782003         1.940954434        -1.569575551    
N          2.513974077         3.844835988        -2.493981005    
H          1.686191981         4.381597915        -2.717766208    
CH         3.812938946         4.419605648        -2.848169679    
HH         3.675254186         5.389505924        -3.330230936    
HH         4.420565157         4.555478527        -1.950998981    
HH         4.341988875         3.756552001        -3.535963546    
