    52
Energy=    -38.1634053150407    
HH         1.619898884       -0.3313596125         4.602471455    
CH        0.6283412035       -0.6140613334         4.954054267    
HH        0.7188110564        -1.217760264         5.856211580    
HH        0.4978989434E-01    0.2824391329         5.173398522    
C        -0.7999239763E-01    -1.415830799         3.885991229    
O         0.4798807730        -1.653571810         2.815523401    
N         -1.314414047        -1.829853958         4.169295488    
H         -1.705231348        -1.585751881         5.067178291    
CA        -2.149259021        -2.590932815         3.236635692    
HA        -1.571756482        -3.449927207         2.888778389    
CB        -3.374487960        -3.128685086         3.987612015    
HB        -3.982514792        -3.732625537         3.312479139    
HB        -3.053696052        -3.751223810         4.824184171    
HB        -3.977308302        -2.300689330         4.364194230    
C         -2.549079511        -1.752011854         2.002831849    
O         -2.954651844       -0.5914488980         2.130892428    
N         -2.441961610        -2.351069355        0.8091704831    
H         -2.124880169        -3.310904698        0.7998872789    
CA        -2.720167686        -1.736067653       -0.4987378713    
HA        -2.335676541        -2.433646775        -1.244763104    
CB        -4.242100649        -1.671863868       -0.7130208072    
HB        -4.683884006        -2.653596786       -0.5372362989    
HB        -4.687721440       -0.9491869942       -0.2859701193E-01
HB        -4.459511622        -1.370865337        -1.738538070    
C         -1.971748811       -0.4049287642       -0.7847630488    
O         -2.425916078        0.4104535953        -1.595821388    
N        -0.8260281289       -0.1716005996       -0.1314121716    
H        -0.4970521748       -0.8729280955        0.5159991518    
CA       -0.3436257560E-02     1.029913034       -0.3041001226    
HA       -0.6654830941         1.898186724       -0.3178233172    
CB        0.9176788543         1.172370272        0.9151055766    
HB         1.605519355        0.3268770264        0.9648768503    
HB         1.494909807         2.094661045        0.8374640087    
HB        0.3220198527         1.207595565         1.828457381    
C         0.7900680907         1.031954881        -1.631187670    
O          1.082223613       -0.2313649852E-01    -2.207572135    
N          1.163047422         2.225295095        -2.105704516    
H         0.9093151602         3.047845818        -1.578171357    
CA         1.961022144         2.418885012        -3.320869104    
HA         1.550235902         1.779807924        -4.105220115    
CB         1.803251166         3.875077432        -3.779847487    
HB         2.339572640         4.027379581        -4.717511188    
HB        0.7480592778         4.102248836        -3.939306169    
HB         2.208399959         4.551488135        -3.025445619    
C          3.446912863         2.029392143        -3.135384367    
O          3.983315536         2.056444976        -2.020340651    
N          4.123961367         1.691293204        -4.241540956    
H          3.620576167         1.704331339        -5.118950282    
CH         5.536181779         1.306851070        -4.273822489    
HH         5.838945653         1.075982488        -5.297096831    
HH         5.699629743        0.4249118607        -3.650867498    
HH         6.156392161         2.123843230        -3.899041232    
    52
Energy=    -32.5966185359296    
HH       -0.1155793819        -1.358935698         7.140928703    
CH        -1.082435984        -1.046853609         6.747935789    
HH        -1.861720892        -1.271178551         7.475225179    
HH        -1.067644350        0.2430481972E-01     6.550573836    
C         -1.372312403        -1.786971889         5.461293204    
O        -0.5595666214        -2.598948797         5.017765658    
N         -2.530099536        -1.508355934         4.863906614    
H         -3.130675017       -0.8220402279         5.295620559    
CA        -2.971842711        -2.105909897         3.599775668    
HA        -2.791679917        -3.181638151         3.652656738    
CB        -4.486501122        -1.896367045         3.463649701    
HB        -4.848199009        -2.386544479         2.558626006    
HB        -5.000076704        -2.327332223         4.324446336    
HB        -4.713132179       -0.8305420657         3.404681301    
C         -2.202969115        -1.564673842         2.370939480    
O         -1.696644183       -0.4381981446         2.393615315    
N         -2.148404492        -2.384419863         1.309461923    
H         -2.600280054        -3.279553468         1.431176293    
CA        -1.567362691        -2.161793918       -0.2770544929E-01
HA       -0.7795797447        -2.904379485       -0.1681646516    
CB        -2.663652714        -2.471457575        -1.059478129    
HB        -3.017174173        -3.495677542       -0.9324928652    
HB        -3.503123481        -1.785486655       -0.9349196932    
HB        -2.260614500        -2.363416992        -2.067511944    
C        -0.9265875302       -0.7729319058       -0.2813901447    
O         -1.605965320        0.1922481616       -0.6540665549    
N         0.3964146610       -0.6820192606       -0.1040594366    
H         0.8956039161        -1.506778801        0.1948758653    
CA         1.175726053        0.5403828542       -0.3235331520    
HA        0.6485499352         1.370493103        0.1512341466    
CB         2.530785091        0.3880869374        0.3810850159    
HB         3.095836155       -0.4310337673       -0.6675218796E-01
HB         3.104906533         1.310389299        0.2818414329    
HB         2.377157834        0.1836746708         1.441796436    
C          1.341033536        0.8905405404        -1.820618791    
O          1.282866332        0.1728730629E-01    -2.695177227    
N          1.576055387         2.173701750        -2.114768874    
H          1.631019416         2.834290874        -1.353285001    
CA         1.808361261         2.681621353        -3.470851294    
HA         1.058616949         2.243866052        -4.133143405    
CB         1.590961279         4.201091962        -3.465275635    
HB         1.698471372         4.593715492        -4.477372255    
HB        0.5871029382         4.431591917        -3.105270025    
HB         2.326148134         4.682208164        -2.818104863    
C          3.200154441         2.299185508        -4.028242630    
O          4.152024782         2.064753911        -3.272720348    
N          3.326132216         2.263125979        -5.362075222    
H          2.506245635         2.478585968        -5.914144491    
CH         4.560991454         1.937224122        -6.077702645    
HH         4.391046559         1.974456149        -7.155566504    
HH         4.897173379        0.9335934930        -5.808789966    
HH         5.344438876         2.653019199        -5.819927813    
    52
Energy=    -38.6587951459706    
HH        -2.752997967        -3.554444604         7.589248534    
CH        -3.005368125        -2.601040199         7.126659602    
HH        -4.003122513        -2.296152716         7.439858081    
HH        -2.282582317        -1.845062164         7.431021065    
C         -2.975880192        -2.741645544         5.621112454    
O         -2.692805987        -3.823840952         5.106040886    
N         -3.269216927        -1.649403096         4.916928511    
H         -3.481005440       -0.8035756852         5.424686467    
CA        -3.270012648        -1.586402893         3.452106010    
HA        -3.795459216        -2.465595501         3.073621894    
CB        -4.065195589       -0.3476614788         3.016951214    
HB        -4.129197977       -0.3129404217         1.928466940    
HB        -5.075615889       -0.3919303811         3.426200998    
HB        -3.571007350        0.5580803325         3.372148047    
C         -1.847778348        -1.599171009         2.845189245    
O        -0.8716947392        -1.185151170         3.482985065    
N         -1.734597067        -2.049897437         1.591143192    
H         -2.572388616        -2.355701053         1.117947463    
CA       -0.4776683503        -2.086316071        0.8366001391    
HA        0.2979209412        -2.501375395         1.483626808    
CB       -0.6503366219        -3.041504536       -0.3523705573    
HB       -0.9434534026        -4.030039750        0.4477851255E-02
HB        -1.415644991        -2.660639406        -1.030654592    
HB        0.2917470817        -3.130362394       -0.8952617357    
C        -0.5118951890E-02   -0.6848863008        0.3848423403    
O        -0.8071345286        0.2435280257        0.2256406670    
N          1.303218785       -0.5389935946        0.1496840472    
H          1.902833153        -1.340792872        0.2800437695    
CA         1.922479699        0.6997799368       -0.3325345674    
HA         1.524814051         1.531465907        0.2528114780    
CB         3.432328279        0.6255078342       -0.6681875643E-01
HB         3.873477447       -0.1923032479       -0.6389990108    
HB         3.906620177         1.561946256       -0.3639224153    
HB         3.615088997        0.4622861441        0.9963900464    
C          1.613391785        0.9887226909        -1.819989557    
O          1.337673605        0.7580469802E-01    -2.608140622    
N          1.686855345         2.265231426        -2.211647100    
H          1.936063488         2.960759541        -1.523594509    
CA         1.476466512         2.720257856        -3.589921447    
HA        0.5849654761         2.225707331        -3.981105064    
CB         1.196592859         4.229298128        -3.566842375    
HB        0.9761897423         4.579957020        -4.576055485    
HB        0.3369278656         4.438129728        -2.928227431    
HB         2.067562137         4.765937519        -3.187065106    
C          2.653963012         2.365342540        -4.528827637    
O          3.798976029         2.200945980        -4.088647687    
N          2.375607927         2.273978100        -5.836670424    
H          1.418310688         2.433558133        -6.122203661    
CH         3.353372662         1.962532206        -6.880790163    
HH         2.866291531         1.944801804        -7.857773202    
HH         3.803678918        0.9852924361        -6.694153477    
HH         4.141865859         2.717978095        -6.894216230    
