    52
Energy=    -41.2338768086030    
HH        -4.177351741         1.325689354        0.1030219227    
CH        -3.640032854        0.4245583545       -0.1898754638    
HH        -4.178787805       -0.4524643663        0.1666412148    
HH        -3.555889266        0.3859521430        -1.275347355    
C         -2.260745782        0.4469328939        0.4223487837    
O         -1.264458020        0.4150918748       -0.2973581979    
N         -2.192747071        0.4799668931         1.752893932    
H         -3.060901441        0.5013100155         2.269106352    
CA       -0.9403258016        0.5983619243         2.511341800    
HA       -0.4324478123         1.510314861         2.191890658    
CB        -1.299390042        0.7488643117         3.995289846    
HB        -1.814942572       -0.1450571667         4.350362412    
HB       -0.3894769713        0.8906379318         4.580350732    
HB        -1.944425327         1.617593728         4.135435037    
C         0.3947400068E-01   -0.5757201071         2.285859237    
O          1.257064072       -0.3855031725         2.348612131    
N        -0.4717110057        -1.767992093         1.952145521    
H         -1.477995196        -1.859582985         1.936931576    
CA        0.3290667391        -2.946675082         1.595498302    
HA         1.093532669        -3.089052768         2.361537887    
CB       -0.5992214591        -4.168072122         1.618482285    
HB        -1.375024637        -4.064689837        0.8580040049    
HB        -1.065115382        -4.262628721         2.600518165    
HB       -0.2224492635E-01    -5.071679911         1.416666000    
C          1.061176695        -2.815709268        0.2367764661    
O          2.007323284        -3.562994924       -0.2944577207E-01
N         0.6496850044        -1.858784863       -0.6057664962    
H        -0.1545627134        -1.307670270       -0.3295731615    
CA         1.248032726        -1.525332976        -1.904027702    
HA         2.130258984        -2.148225820        -2.058832698    
CB        0.2290402648        -1.881018718        -2.997094469    
HB       -0.6567627095        -1.251359100        -2.899901268    
HB        0.6712505631        -1.727143433        -3.982139478    
HB       -0.6206217553E-01    -2.928351901        -2.905650596    
C          1.739550158       -0.5664955925E-01    -1.981707443    
O          1.961414004        0.4713174648        -3.076250300    
N          1.894553108        0.6103522285       -0.8271446005    
H          1.729218020        0.9536256068E-01    0.2606716445E-01
CA         2.256923805         2.027926239       -0.6811251182    
HA         2.089542343         2.272608478        0.3691525833    
CB         3.765888538         2.196978187       -0.9272444386    
HB         4.070751467         3.211989974       -0.6697381428    
HB         4.324477974         1.496635499       -0.3049004833    
HB         3.999039521         2.011297581        -1.976214514    
C          1.352210816         3.016925240        -1.465173861    
O          1.809525586         4.072216963        -1.920655343    
N         0.6394485230E-01     2.682141207        -1.630269025    
H        -0.2458285367         1.806301466        -1.220704813    
CH       -0.9311245137         3.481076748        -2.345051103    
HH        -1.900023180         2.978643328        -2.319180963    
HH        -1.030223667         4.463268310        -1.878399121    
HH       -0.6291222868         3.612043205        -3.386162085    
    52
Energy=    -34.3645542063999    
HH        -5.518342416        -1.311158987         1.665619633    
CH        -4.705865860        -1.860960812         1.192068759    
HH        -4.543294373        -2.797763866         1.723682823    
HH        -4.962947583        -2.069791294        0.1542033710    
C         -3.445067409        -1.030034700         1.245347335    
O         -2.872073937       -0.7046572662        0.2064403517    
N         -2.995310027       -0.7040215150         2.457577932    
H         -3.528247894        -1.015503058         3.257233989    
CA        -1.833386392        0.1610308280         2.703167552    
HA        -1.998668188         1.108936614         2.187777620    
CB        -1.767623766        0.4448704582         4.209680370    
HB        -1.603424615       -0.4829670012         4.760214829    
HB       -0.9462363528         1.132011716         4.418145187    
HB        -2.700021707        0.9030132350         4.543029399    
C        -0.4966596374       -0.4146224594         2.180420015    
O         0.4375463834        0.3423366931         1.902819546    
N        -0.4093373463        -1.737088121         1.987082789    
H         -1.205569817        -2.301853865         2.246872251    
CA        0.7664875965        -2.425593253         1.442067836    
HA         1.638557144        -2.130164609         2.028413890    
CB        0.5553554260        -3.933508180         1.631642698    
HB       -0.3083108657        -4.267342556         1.054080165    
HB        0.3932523304        -4.156823392         2.687243907    
HB         1.440128117        -4.473956833         1.292112643    
C          1.071752923        -2.078480161       -0.3550906552E-01
O          2.187190583        -2.319872236       -0.5062224246    
N         0.1150679062        -1.485922400       -0.7640789028    
H        -0.7902453105        -1.339063194       -0.3350041077    
CA        0.2847232336        -1.035335751        -2.150840680    
HA        0.8495860165        -1.797130976        -2.691316993    
CB        -1.107532325       -0.9487698076        -2.790915216    
HB        -1.695904777       -0.1700236067        -2.303717124    
HB        -1.011703927       -0.7095875787        -3.850802663    
HB        -1.622659300        -1.905514772        -2.693540851    
C          1.069435237        0.2936628460        -2.298397664    
O          1.398201116        0.6710381296        -3.425955101    
N          1.346504954        0.9861498008        -1.179789278    
H         0.9983806216        0.5801044906       -0.3223263025    
CA         2.129522346         2.222505096        -1.000155435    
HA         1.459928778         2.972004058       -0.5741864068    
CB         3.206698895         1.931804267        0.5703921601E-01
HB         3.785243113         2.836167227        0.2504775748    
HB         2.739568180         1.611142277        0.9886873499    
HB         3.877822554         1.146638203       -0.2946792039    
C          2.752186198         2.844882730        -2.277435467    
O          3.824889991         2.431923960        -2.737931027    
N          2.091147335         3.872675595        -2.829437207    
H          1.222553974         4.156818533        -2.396132726    
CH         2.523689034         4.599803469        -4.023929743    
HH         1.805917256         5.386321071        -4.265147554    
HH         3.501369291         5.055278950        -3.853036942    
HH         2.595727590         3.916391802        -4.872660946    
    52
Energy=    -40.6448843121886    
HH        -4.857636240       -0.6293768508E-01     1.703375383    
CH        -4.239028753       -0.7915697675         1.180828119    
HH        -4.349637154        -1.767017063         1.652963943    
HH        -4.549328903       -0.8528710717        0.1383091171    
C         -2.793155429       -0.3609395950         1.254726012    
O         -2.155796544       -0.1502974507        0.2240715855    
N         -2.261923310       -0.2547393962         2.473081235    
H         -2.857572259       -0.4512169001         3.265060343    
CA       -0.9021947695        0.2313208114         2.742802681    
HA       -0.8068228759         1.232058715         2.317846271    
CB       -0.7345374757        0.3437691564         4.263632241    
HB       -0.8272622897       -0.6403380421         4.726117580    
HB        0.2496432197        0.7539647053         4.494816384    
HB        -1.495892926         1.009090330         4.673613768    
C         0.2114110823       -0.6404747084         2.118160997    
O          1.290845161       -0.1326724971         1.803773231    
N        -0.5668673576E-01    -1.929910703         1.875278191    
H        -0.9510749555        -2.289693193         2.177922745    
CA        0.8595689704        -2.853556513         1.195525148    
HA         1.844429861        -2.765967491         1.658052863    
CB        0.3489333179        -4.280493251         1.434647958    
HB       -0.6341251830        -4.409243947        0.9786669838    
HB        0.2797520804        -4.476194955         2.505782863    
HB         1.042153823        -4.997333721        0.9922263558    
C          1.035218903        -2.560435543       -0.3148435775    
O          2.014147840        -3.010699157       -0.9179385289    
N         0.1145730373        -1.797774697       -0.9210774423    
H        -0.6738732051        -1.482812599       -0.3683968334    
CA        0.1336764598        -1.385722356        -2.330905783    
HA        0.9432556609        -1.906550387        -2.844273191    
CB        -1.185054409        -1.843905142        -2.969841048    
HB        -2.025180893        -1.323766203        -2.507258243    
HB        -1.174659914        -1.624385732        -4.038173108    
HB        -1.308661941        -2.919397233        -2.835176992    
C         0.3951253979        0.1279941617        -2.533685527    
O         0.4147683388        0.6075567635        -3.672581736    
N         0.5941300564        0.8886558910        -1.450151303    
H         0.5923100997        0.4357112746       -0.5492642555    
CA        0.8463385091         2.331846327        -1.477874893    
HA        0.1624099010         2.784656075        -2.198692367    
CB        0.5084924931         2.908805258       -0.9615518680E-01
HB        0.6186985928         3.993932486       -0.1115092251    
HB       -0.5223158290         2.665243312        0.1657920223    
HB         1.180965539         2.495257124        0.6568142121    
C          2.285897776         2.685983968        -1.920163537    
O          3.215840752         1.880145678        -1.787933568    
N          2.475383423         3.912203033        -2.426915613    
H          1.668908343         4.519286113        -2.493732243    
CH         3.761587538         4.437655082        -2.888108222    
HH         3.639515280         5.457833947        -3.257405050    
HH         4.480794991         4.444416462        -2.066353245    
HH         4.153645846         3.815530124        -3.695477518    
