    52
Energy=    -37.9782296581849    
HH        -4.603002257        0.6480541622        0.5610708018    
CH        -3.993017011       -0.2110541714        0.2846076337    
HH        -4.399319293        -1.109435313        0.7476613550    
HH        -3.993546729       -0.3257076353       -0.7987678079    
C         -2.579664654        0.6066363549E-02    0.7690688314    
O         -1.645721854        0.1940616001E-01   -0.3080351048E-01
N         -2.410331933        0.1488790317         2.083247646    
H         -3.232354187        0.1188581253         2.669705944    
CA        -1.123910147        0.4566558220         2.723036957    
HA       -0.7387376859         1.379780915         2.285986061    
CB        -1.389336500        0.7112252469         4.212587235    
HB        -1.778117354       -0.1925741105         4.684700970    
HB       -0.4604902060        0.9992666134         4.707069595    
HB        -2.112673027         1.519714227         4.328741275    
C        -0.4022064138E-01   -0.6288748281         2.522685415    
O          1.154931967       -0.3286910608         2.593365894    
N        -0.4387968097        -1.873158617         2.227340629    
H         -1.431418885        -2.060908690         2.223112623    
CA        0.4703246536        -2.974414794         1.890990459    
HA         1.281626512        -2.991594937         2.621081709    
CB       -0.3124494929        -4.287336682         2.022028635    
HB        -1.131508717        -4.310898696         1.301279834    
HB       -0.7157066059        -4.380530065         3.031537964    
HB        0.3525398470        -5.130903904         1.831358889    
C          1.113689346        -2.836430700        0.4901754665    
O          2.190301902        -3.392600887        0.2519589059    
N         0.4807873678        -2.088378738       -0.4247223634    
H        -0.4034264172        -1.672646433       -0.1614898595    
CA        0.9839495174        -1.797415001        -1.773272419    
HA         1.784772365        -2.495816383        -2.021708807    
CB       -0.1600355680        -2.036793186        -2.766723318    
HB       -0.9848348228        -1.351786223        -2.564189838    
HB        0.1980964246        -1.870483934        -3.783565939    
HB       -0.5157315657        -3.064635422        -2.682265309    
C          1.566543787       -0.3722481308        -1.905569257    
O          2.554225982       -0.1798164458        -2.622443936    
N         0.9881484755        0.6005808067        -1.185213215    
H         0.1624642478        0.3420606659       -0.6588664611    
CA         1.335091900         2.029419559        -1.183248445    
HA        0.5857696802         2.528457734       -0.5660656893    
CB         2.680154080         2.213681052       -0.4562840724    
HB         2.865930910         3.271727753       -0.2695401022    
HB         2.656966678         1.694654057        0.5032548007    
HB         3.495040506         1.813592638        -1.060497903    
C          1.255055211         2.727532511        -2.568735368    
O         0.8710919380         2.128338890        -3.581121734    
N          1.573366467         4.029680536        -2.607306694    
H          1.863683829         4.463708923        -1.741198971    
CH         1.538965481         4.867250353        -3.807734626    
HH        0.5258886412         4.899674120        -4.214173510    
HH         1.853542569         5.884181525        -3.564974381    
HH         2.211402378         4.462686998        -4.567171993    
    52
Energy=    -37.5226723782487    
HH        -4.867009525        0.3177358202        0.4268267144    
CH        -4.163495051       -0.4726227707        0.1679198612    
HH        -4.470177240        -1.402485882        0.6453536229    
HH        -4.145588337       -0.6054611205       -0.9132553020    
C         -2.785400360       -0.9109869884E-01    0.6544975218    
O         -1.853627518        0.1365003838E-01   -0.1415557819    
N         -2.642886306        0.9214487172E-01     1.967235590    
H         -3.460346506       -0.1641088929E-01     2.550795120    
CA        -1.398740847        0.5426125464         2.604548327    
HA        -1.114068340         1.498831146         2.161645273    
CB        -1.688163981        0.7754239924         4.093201290    
HB        -1.980831981       -0.1612139242         4.570706237    
HB       -0.7936523594         1.160728016         4.584822266    
HB        -2.491374320         1.505130198         4.206222169    
C        -0.2105749698       -0.4266226635         2.407803204    
O         0.9432080220        0.9566477173E-02     2.370930235    
N        -0.4803652181        -1.725406570         2.222514237    
H         -1.444692318        -2.019853386         2.288724275    
CA        0.5329487623        -2.749017298         1.941765202    
HA         1.355772532        -2.625717233         2.648426497    
CB       -0.1041320522        -4.121976662         2.192373487    
HB       -0.9306776615        -4.285605691         1.498860643    
HB       -0.4747089826        -4.178443837         3.217023881    
HB        0.6419880951        -4.904401518         2.046385222    
C          1.131798813        -2.654795417        0.5181209885    
O          2.253970724        -3.117282421        0.2910944726    
N         0.4117233608        -2.042434917       -0.4321481556    
H        -0.5041587944        -1.691866273       -0.1823515773    
CA        0.8611082976        -1.815847996        -1.811911237    
HA         1.602322835        -2.573299820        -2.072433900    
CB       -0.3447167852        -2.014973947        -2.739476376    
HB        -1.104862870        -1.259833275        -2.535200722    
HB       -0.2654721807E-01    -1.924787877        -3.778866448    
HB       -0.7708258109        -3.007660176        -2.587599032    
C          1.531772951       -0.4378526033        -2.028552581    
O          2.218666825       -0.2464484327        -3.037826922    
N          1.362420545        0.4952457182        -1.078822720    
H         0.7897343796        0.2328573950       -0.2910739410    
CA         1.830275192         1.889562018        -1.108251176    
HA         1.417511690         2.372243039       -0.2204674512    
CB         3.359960249         1.908266857       -0.9317761958    
HB         3.706513896         2.927449712       -0.7583599005    
HB         3.641461709         1.298603964       -0.7181807105E-01
HB         3.849177964         1.517034874        -1.824363131    
C          1.317497877         2.732821647        -2.308007707    
O         0.5596316617         2.260491971        -3.164529245    
N          1.698659673         4.018020881        -2.346031827    
H          2.306842574         4.345227007        -1.607155382    
CH         1.306876972         4.979861552        -3.378070481    
HH        0.2209835700         5.094829529        -3.391519929    
HH         1.761294586         5.952026110        -3.176978583    
HH         1.637501897         4.633055716        -4.359392559    
    52
Energy=    -37.9728100101744    
HH        -5.524148530       -0.7994816119         1.020140360    
CH        -4.723285306        -1.496526112        0.7764211013    
HH        -4.731713256        -2.321992381         1.487180041    
HH        -4.869079871        -1.881486473       -0.2322507764    
C         -3.396337531       -0.7787278855        0.8588385113    
O         -2.665226969       -0.7111180938       -0.1283028000    
N         -3.069775797       -0.2612754827         2.043694386    
H         -3.729795174       -0.3661272968         2.801257408    
CA        -1.861896422        0.5372369282         2.293128817    
HA        -1.862581049         1.381857941         1.601673246    
CB        -1.950625406         1.092278354         3.720872385    
HB        -1.953654445        0.2739428124         4.442859822    
HB        -1.092863482         1.737042185         3.917953121    
HB        -2.863095370         1.679287916         3.835825798    
C        -0.5395450456       -0.2328193640         2.070438386    
O         0.4945216427        0.3803667210         1.790269966    
N        -0.5685643385        -1.570712482         2.130047353    
H         -1.444333524        -2.009519301         2.376919072    
CA        0.5836538047        -2.443287865         1.875710731    
HA         1.400353481        -2.132318164         2.529812791    
CB        0.1826970627        -3.873152700         2.261349116    
HB       -0.6324687225        -4.219660316         1.623848068    
HB       -0.1361001315        -3.901814557         3.304411920    
HB         1.037514790        -4.539820766         2.138682657    
C          1.111280672        -2.378002039        0.4219656101    
O          2.262779538        -2.744234418        0.1685905133    
N         0.3058717472        -1.880679877       -0.5271765288    
H        -0.6381645802        -1.622984234       -0.2669121156    
CA        0.7094992449        -1.645865577        -1.918491349    
HA         1.339637146        -2.476967956        -2.240339522    
CB       -0.5557010310        -1.658734332        -2.786357616    
HB        -1.198511336       -0.8176734926        -2.523254850    
HB       -0.2804175715        -1.577952591        -3.838650869    
HB        -1.100728765        -2.591878168        -2.637166771    
C          1.532863558       -0.3491592777        -2.124588489    
O          2.091525720       -0.1507732090        -3.208958774    
N          1.628425584        0.5098201661        -1.096398520    
H          1.158759220        0.2508028266       -0.2391368426    
CA         2.271695958         1.832741965        -1.104142209    
HA         2.060451911         2.284051011       -0.1329371191    
CB         3.799394401         1.646953730        -1.165333127    
HB         4.301991434         2.595482798       -0.9740685236    
HB         4.116652007        0.9311160632       -0.4055013720    
HB         4.098011875         1.282087714        -2.148585191    
C          1.706917769         2.831589478        -2.151139044    
O         0.7555096832         2.538748220        -2.886225200    
N          2.267255142         4.049404246        -2.186493162    
H          3.030268719         4.229341799        -1.547524293    
CH         1.862883785         5.133985263        -3.083093226    
HH        0.8198233009         5.401887074        -2.901924535    
HH         2.486850616         6.013676521        -2.913242910    
HH         1.971524141         4.821044091        -4.123695448    
