    52
Energy=    -38.4725634812748    
HH        -6.918085699        -1.604788461        0.9965585392    
CH        -6.035761746        -1.079419279        0.6329677153    
HH        -6.249888225       -0.1365877864E-01    0.5612424764    
HH        -5.763886863        -1.463739730       -0.3493829045    
C         -4.890224397        -1.305080549         1.593451708    
O         -4.353504248       -0.3490410235         2.152122526    
N         -4.512499874        -2.570022504         1.778816903    
H         -5.024514846        -3.290204012         1.289431809    
CA        -3.443581936        -2.992321573         2.693913247    
HA        -3.487634358        -2.365891441         3.586616419    
CB        -3.738711919        -4.435971844         3.123874978    
HB        -3.003425989        -4.757749917         3.862654512    
HB        -4.732168887        -4.495029755         3.570965015    
HB        -3.690215985        -5.101765214         2.260738736    
C         -2.014321500        -2.847026181         2.115675108    
O         -1.032318550        -2.975392909         2.854914575    
N         -1.879808206        -2.586384949        0.8094714963    
H         -2.721334633        -2.484037385        0.2628698828    
CA       -0.5957094962        -2.417955511        0.1219199971    
HA        0.6612693522E-01    -3.229121094        0.4324782745    
CB       -0.8298343848        -2.562743549        -1.388033910    
HB        -1.286863520        -3.530020667        -1.602453493    
HB        -1.485953726        -1.766386170        -1.743235779    
HB        0.1220182716        -2.500093340        -1.917387735    
C         0.1086475050        -1.085678917        0.4685712361    
O        -0.5344318996       -0.9169332707E-01    0.8269161885    
N          1.438648501        -1.056938931        0.3312976050    
H          1.903124866        -1.896128999        0.1600390658E-01
CA         2.267411506        0.1305076959        0.5629233343    
HA         1.950026439        0.5917528195         1.500461438    
CB         3.724769565       -0.3185226237        0.7368308186    
HB         4.352018714        0.5432522436        0.9692993811    
HB         4.086063907       -0.7820686789       -0.1826293034    
HB         3.797561266        -1.035760677         1.555809860    
C          2.121699500         1.193549904       -0.5507289610    
O          1.779444186        0.8800311094        -1.697550291    
N          2.410399677         2.456002637       -0.2173543447    
H          2.702835366         2.643108707        0.7306708531    
CA         2.377706393         3.585715031        -1.152031867    
HA         1.457326268         3.520027998        -1.735952680    
CB         2.319523834         4.887271205       -0.3404697490    
HB         3.226679229         4.997581440        0.2559370638    
HB         1.451809899         4.874416905        0.3208712447    
HB         2.232689910         5.740119330        -1.015125113    
C          3.561262456         3.578706439        -2.148607188    
O          4.631878528         3.023744476        -1.869965925    
N          3.376468581         4.224459936        -3.308407667    
H          2.478105357         4.664379143        -3.459493690    
CH         4.377659311         4.341407179        -4.370079336    
HH         5.266299524         4.852418874        -3.993535040    
HH         3.971674173         4.912350861        -5.207490283    
HH         4.664801522         3.349833855        -4.726361588    
    52
Energy=    -32.6981575045531    
HH        -6.742101191        -4.377377859         1.659918598    
CH        -6.398491323        -3.587953997        0.9924970354    
HH        -7.236960878        -2.945682706        0.7254603651    
HH        -5.977928291        -4.032360423        0.9123598407E-01
C         -5.334950050        -2.772228814         1.691481655    
O         -5.498811231        -1.566157970         1.872804444    
N         -4.239583355        -3.428526360         2.074889346    
H         -4.200480647        -4.422601286         1.899302388    
CA        -3.120102685        -2.816141568         2.803279156    
HA        -3.530836781        -2.168644521         3.580128931    
CB        -2.341455807        -3.942678155         3.496537640    
HB        -1.542248209        -3.517047272         4.104956406    
HB        -3.009121564        -4.511707388         4.145223065    
HB        -1.904342669        -4.610224228         2.752208016    
C         -2.191968839        -1.937167873         1.928526043    
O         -1.406942033        -1.160171764         2.478180775    
N         -2.283735561        -2.075466121        0.5954087820    
H         -2.949734803        -2.767636879        0.2858807659    
CA        -1.609150310        -1.333120374       -0.4849099033    
HA        -1.028733368        -2.054541546        -1.063195664    
CB        -2.704108289       -0.7891058783        -1.416262005    
HB        -3.309064564        -1.611264781        -1.801250924    
HB        -3.348529148       -0.9466876199E-01   -0.8746961988    
HB        -2.245347976       -0.2684938351        -2.258103269    
C        -0.6292460233       -0.2145577995       -0.4665944127E-01
O         -1.027252360        0.9308041710        0.2017385048    
N         0.6654544974       -0.5450313664        0.2101577605E-01
H         0.9278212099        -1.494328669       -0.1998966444    
CA         1.736286734        0.3869198131        0.3878371156    
HA         1.416583651        0.9425959104         1.271812528    
CB         2.978976449       -0.4261942122        0.7756562376    
HB         3.770815923        0.2455233916         1.110162097    
HB         3.336923835       -0.9958997575       -0.8347579435E-01
HB         2.735366836        -1.112370817         1.588245208    
C          2.045925507         1.417978221       -0.7222111173    
O          1.805684212         1.173997146        -1.911143155    
N          2.608596001         2.567354630       -0.3341534629    
H          2.796758392         2.697057428        0.6492246690    
CA         3.017120264         3.637986937        -1.249445152    
HA         2.209173385         3.802816928        -1.965287597    
CB         3.189800299         4.930693171       -0.4400143191    
HB         3.995228233         4.812712186        0.2867377467    
HB         2.262534562         5.167873059        0.8380885780E-01
HB         3.434428005         5.756381236        -1.109676388    
C          4.289279862         3.288147716        -2.057688938    
O          5.119251758         2.476260740        -1.628939999    
N          4.457030512         3.926861629        -3.223957953    
H          3.741480039         4.585609781        -3.502269918    
CH         5.598249542         3.743151001        -4.122334438    
HH         6.525549042         4.009569407        -3.610731882    
HH         5.487816786         4.377759681        -5.003886889    
HH         5.659092719         2.701298599        -4.443967084    
    52
Energy=    -37.6972571225924    
HH        -4.392652318        -6.111025574        0.6540325927    
CH        -4.735733975        -5.173455960        0.2181901994    
HH        -5.811250218        -5.220992854        0.5129956669E-01
HH        -4.226408737        -5.006477626       -0.7301409444    
C         -4.417103350        -4.038219427         1.164154348    
O         -5.320943433        -3.334774022         1.614352521    
N         -3.129882077        -3.853805580         1.458120020    
H         -2.458621448        -4.491366394         1.053823554    
CA        -2.632327972        -2.834161959         2.390907769    
HA        -3.286421753        -2.819271097         3.264617848    
CB        -1.235746519        -3.268057724         2.857324115    
HB       -0.8621244295        -2.565316305         3.603513735    
HB        -1.285874281        -4.260976168         3.306787840    
HB       -0.5461538066        -3.288308836         2.011838130    
C         -2.614636849        -1.397757881         1.815283043    
O         -2.496097340       -0.4341144786         2.578193456    
N         -2.726638894        -1.247330804        0.4864115288    
H         -2.834148164        -2.089834784       -0.6044397535E-01
CA        -2.713765005        0.2769793323E-01   -0.2493567434    
HA        -2.622548305       -0.2344446114        -1.304821817    
CB        -4.079834779        0.7170418398       -0.9231862369E-01
HB        -4.878574724        0.2238578039E-01   -0.3556420049    
HB        -4.217123435         1.048727886        0.9374413579    
HB        -4.136481349         1.581425982       -0.7550246007    
C         -1.488940100        0.9367212385        0.3873732630E-01
O         -1.581378054         2.168495731       -0.1686926460E-01
N        -0.3363579609        0.3343723768        0.3562908315    
H        -0.3213243532       -0.6741564449        0.3670533127    
CA        0.9125666344         1.035152249        0.6684738702    
HA        0.6814542609         1.860206184         1.345424794    
CB         1.837286280        0.6587203047E-01     1.417828836    
HB         2.750417804        0.5824542806         1.716884172    
HB         2.100338828       -0.7745958729        0.7734418258    
HB         1.337088362       -0.3079528716         2.312674158    
C          1.596111695         1.637336050       -0.5809113790    
O          1.400529222         1.168949521        -1.709215187    
N          2.424710018         2.666454825       -0.3745734378    
H          2.555907805         2.989331222        0.5729588647    
CA         3.196924992         3.330453804        -1.429921854    
HA         2.533939801         3.506766688        -2.279476276    
CB         3.656201678         4.699261450       -0.9088600700    
HB         4.329072609         4.570114714       -0.5952789518E-01
HB         2.791600387         5.287956706       -0.5984306964    
HB         4.181289056         5.238357732        -1.698611811    
C          4.384032465         2.477243644        -1.936715221    
O          4.910624352         1.618511502        -1.217613836    
N          4.826063873         2.735035099        -3.175440217    
H          4.352497272         3.460114965        -3.698328313    
CH         5.942834625         2.047177369        -3.825737557    
HH         6.859401275         2.191711293        -3.249876614    
HH         6.093109485         2.443684129        -4.831848189    
HH         5.735091153        0.9773828524        -3.896353087    
