    52
Energy=    -35.3503472283853    
HH        -5.845271915       -0.1585946056        0.7504310207    
CH        -4.931825982       -0.3668086651        0.1947448186    
HH        -5.010140880        -1.344078809       -0.2799854957    
HH        -4.784972260        0.3979571834       -0.5670216824    
C         -3.757687875       -0.3674730962         1.146766960    
O         -2.829153933        0.4250744940        0.9867722259    
N         -3.789562733        -1.260345871         2.135335454    
H         -4.583264571        -1.881124522         2.192553779    
CA        -2.720747979        -1.412394449         3.125485292    
HA        -2.523995090       -0.4324122258         3.565125987    
CB        -3.208736494        -2.335899467         4.249531890    
HB        -3.430743045        -3.327397011         3.851491699    
HB        -2.434620765        -2.424614811         5.013154315    
HB        -4.108221362        -1.921057254         4.706852917    
C         -1.411607146        -1.922086914         2.483681160    
O         -1.418905396        -2.889455979         1.714586918    
N        -0.2885055617        -1.268070381         2.809678246    
H        -0.3726259122       -0.5032496726         3.465544224    
CA         1.059383626        -1.541519602         2.285645481    
HA         1.680080304       -0.7026678493         2.605304832    
CB         1.628507813        -2.788437737         2.984170354    
HB         1.082691576        -3.678223492         2.668412252    
HB         1.543323353        -2.679563511         4.066210606    
HB         2.681979653        -2.908474624         2.728396607    
C          1.185837051        -1.555841576        0.7372643980    
O          2.107012198        -2.169572422        0.1881348282    
N         0.2780652697       -0.8778285297        0.2044788921E-01
H        -0.4634909621       -0.4041420358        0.5179690324    
CA        0.2276721724       -0.8629676288        -1.448129880    
HA        0.4522280950        -1.868088431        -1.809756333    
CB        -1.210148659       -0.5312896462        -1.868031393    
HB        -1.471704911        0.4772608170        -1.544618316    
HB        -1.298058086       -0.5889701405        -2.953690985    
HB        -1.902537806        -1.246719528        -1.422066425    
C          1.248500167        0.9243455559E-01    -2.112587499    
O          1.527247221       -0.5131871623E-01    -3.307968100    
N          1.817650366         1.035394311        -1.345000520    
H          1.529760641         1.062693329       -0.3784171408    
CA         2.744991374         2.090871988        -1.784826064    
HA         2.913197067         2.738170299       -0.9221407719    
CB         4.107673323         1.451581772        -2.111846853    
HB         4.864059824         2.225138193        -2.247511395    
HB         4.421073249        0.8057233656        -1.290230715    
HB         4.039665146        0.8607668735        -3.025862991    
C          2.194233371         3.025913959        -2.896766081    
O          1.034145377         2.927438891        -3.316226225    
N          3.019578418         3.982906041        -3.345564488    
H          3.949034246         4.019242825        -2.948575498    
CH         2.679878618         4.972639108        -4.369726739    
HH         1.835132508         5.580609144        -4.039035089    
HH         3.533227907         5.627639208        -4.556320695    
HH         2.410699691         4.471232644        -5.301785813    
    52
Energy=    -33.0305566382239    
HH        -5.691792145        0.1656430248        0.6298756069    
CH        -4.792495615       -0.1253186327        0.8845762798E-01
HH        -4.930938457        -1.117531631       -0.3392221726    
HH        -4.597605745        0.5913617724       -0.7084780748    
C         -3.621648029       -0.1530788204         1.044084655    
O         -2.645368044        0.5715335320        0.8498294731    
N         -3.709930995       -0.9936608379         2.074206046    
H         -4.540801470        -1.560439586         2.158066374    
CA        -2.653743882        -1.163656299         3.074931911    
HA        -2.398771507       -0.1779538003         3.469567063    
CB        -3.198335195        -2.002831057         4.238419381    
HB        -3.479536065        -2.996475684         3.885732696    
HB        -2.432037768        -2.102695846         5.008523148    
HB        -4.071620249        -1.513559477         4.672349582    
C         -1.377057976        -1.780707773         2.462688923    
O         -1.441297660        -2.784222794         1.744259206    
N        -0.2176615131        -1.176504860         2.756134148    
H        -0.2566433318       -0.3754589152         3.371770217    
CA         1.111378007        -1.552812022         2.247940351    
HA         1.779722937       -0.7359803076         2.525823941    
CB         1.609292064        -2.793677898         3.008863461    
HB         1.012890815        -3.665462092         2.737503128    
HB         1.532268789        -2.625948136         4.083972255    
HB         2.653737472        -2.986581483         2.760753995    
C          1.234298960        -1.652119478        0.7023781120    
O          2.120353108        -2.341377397        0.1861674913    
N         0.3633063217       -0.9631979803       -0.4905286798E-01
H        -0.3517034307       -0.4267734085        0.4232585228    
CA        0.3086745361        -1.023451066        -1.516541161    
HA        0.4824767729        -2.056209373        -1.824350502    
CB        -1.113379252       -0.6454147678        -1.951359090    
HB        -1.324791897        0.3906314204        -1.682787852    
HB        -1.209184543       -0.7578957633        -3.032089912    
HB        -1.837534867        -1.301198770        -1.465801354    
C          1.372178617       -0.1557534735        -2.233133047    
O          1.635594703       -0.3801792035        -3.417524394    
N          1.986148438        0.7974059512        -1.514262840    
H          1.698950454        0.8703397826       -0.5494193114    
CA         2.964341404         1.799135567        -1.969415291    
HA         3.154518344         2.443505921        -1.108870476    
CB         4.307891351         1.117963465        -2.274063817    
HB         5.061245192         1.876646394        -2.489994071    
HB         4.632509915        0.5337500704        -1.411935295    
HB         4.212490350        0.4602193770        -3.138488409    
C          2.471989031         2.735039075        -3.104194772    
O          2.288266524         2.327827716        -4.256742511    
N          2.299716700         4.025482868        -2.782400799    
H          2.480507360         4.297830955        -1.825075974    
CH         1.863639005         5.069901423        -3.711543778    
HH        0.8822248580         4.822172112        -4.121511058    
HH         1.796705580         6.028794665        -3.193748625    
HH         2.576562326         5.162943342        -4.533549859    
    52
Energy=    -36.7091838691022    
HH        -5.549480988        0.5866608467        0.7981036706    
CH        -4.670368804        0.3013628046        0.2216527797    
HH        -4.868196469       -0.6314757306       -0.3048831196    
HH        -4.435771594         1.084106308       -0.4987583156    
C         -3.500598535        0.1066034406         1.158961503    
O         -2.483811631        0.7891517909         1.031770133    
N         -3.635419194       -0.8294810863         2.097636360    
H         -4.498045234        -1.352405148         2.130006426    
CA        -2.588399872        -1.163273803         3.066256233    
HA        -2.276197568       -0.2404822631         3.559553590    
CB        -3.177599990        -2.087381677         4.140204939    
HB        -3.516465758        -3.020897723         3.687978185    
HB        -2.416442775        -2.310996644         4.889124268    
HB        -4.020169227        -1.597282147         4.630294472    
C         -1.350900530        -1.784501794         2.382026009    
O         -1.474389686        -2.703888120         1.565458123    
N        -0.1582109170        -1.278760224         2.724179791    
H        -0.1495990232       -0.5441782152         3.418815038    
CA         1.145357157        -1.673032762         2.166107791    
HA         1.859560721       -0.9274566387         2.519869007    
CB         1.576734763        -3.011625172         2.789599373    
HB        0.9313737274        -3.816428717         2.435854654    
HB         1.514154977        -2.952294236         3.877021923    
HB         2.607632393        -3.234943541         2.512080379    
C          1.255433334        -1.618177348        0.6173966149    
O          2.100598532        -2.296357892        0.2378617373E-01
N         0.4193953381       -0.8098323639       -0.5012441885E-01
H        -0.2630804351       -0.2874366863        0.4823230160    
CA        0.3569025877       -0.7130396899        -1.515108829    
HA        0.4756760135        -1.715114200        -1.931356115    
CB        -1.044205218       -0.2169612065        -1.896405763    
HB        -1.200631786        0.7942596468        -1.517997005    
HB        -1.148660794       -0.2092252427        -2.982219955    
HB        -1.800752999       -0.8819177872        -1.477159641    
C          1.462905383        0.1683544965        -2.142981639    
O          1.701140254        0.8321118358E-01    -3.351551405    
N          2.137500087         1.004140054        -1.338356370    
H          1.881033529         1.005094741       -0.3615970734    
CA         3.223851082         1.912189843        -1.741250606    
HA         3.399398401         2.568202205       -0.8869308149    
CB         4.516347870         1.100283212        -1.932725880    
HB         5.360047701         1.776305659        -2.076560247    
HB         4.705511496        0.4893152288        -1.049100187    
HB         4.427026380        0.4522653993        -2.805280549    
C          2.879190141         2.874038172        -2.910816238    
O          3.751191565         3.250306659        -3.703490124    
N          1.604417010         3.276106533        -3.027222358    
H         0.9481102841         2.931352536        -2.340197888    
CH         1.094839120         4.167652779        -4.070368255    
HH         1.256484544         3.723407111        -5.054761890    
HH        0.2500895538E-01     4.335202542        -3.931202764    
HH         1.610575979         5.129274666        -4.027653002    
