    52
Energy=    -38.4667231886661    
HH        -5.908995113        0.8847347970        0.3188659863    
CH        -5.182894006         1.312334621         1.009154154    
HH        -5.702018104         1.741809976         1.865149032    
HH        -4.612570831         2.088923528        0.5010165557    
C         -4.239815722        0.2268402458         1.477434062    
O         -4.153601773       -0.4385773867E-01     2.675639619    
N         -3.534733910       -0.3946517608        0.5331142700    
H         -3.667283890       -0.1018927135       -0.4234400598    
CA        -2.554482009        -1.452778253        0.7959764476    
HA        -2.998131410        -2.163283397         1.496509182    
CB        -2.280727346        -2.200552221       -0.5169426308    
HB        -1.602234722        -3.035230933       -0.3344627021    
HB        -1.827516887        -1.526157357        -1.245672080    
HB        -3.214968179        -2.592765509       -0.9219965430    
C         -1.251938510       -0.9212543425         1.434704416    
O        -0.8705330629        0.2388898675         1.245072609    
N        -0.5256808306        -1.793343090         2.144689742    
H        -0.8833013792        -2.732867125         2.252265799    
CA        0.7131703796        -1.453393818         2.860167226    
HA        0.5017542943       -0.6178501936         3.530069084    
CB         1.105335934        -2.662414380         3.719616066    
HB         1.326093056        -3.520604492         3.082650721    
HB        0.2903220140        -2.916127436         4.399180517    
HB         1.990421829        -2.421426694         4.310228814    
C          1.877902844        -1.015123674         1.940170025    
O          2.799870091       -0.3294009256         2.391370798    
N          1.825463004        -1.364895981        0.6481585137    
H          1.068796908        -1.966399834        0.3557788420    
CA         2.783124263       -0.9302507127       -0.3751314786    
HA         3.788828962       -0.9904007477        0.4487397877E-01
CB         2.700854892        -1.924016696        -1.541946296    
HB         3.449876141        -1.671859093        -2.293971783    
HB         1.710970637        -1.885760705        -1.999675559    
HB         2.894340227        -2.935919929        -1.182613273    
C          2.577923294        0.5295217632       -0.8524857935    
O          3.433907389         1.065119772        -1.563143431    
N          1.461567426         1.173377247       -0.4754600405    
H         0.8153021554        0.6748918398        0.1243792411    
CA         1.087407899         2.550792081       -0.8312983682    
HA        0.4873992596E-01     2.667150685       -0.5171503583    
CB         1.906295092         3.535418475        0.2086380942E-01
HB         1.527469126         4.548622727       -0.1183398252    
HB         1.820709863         3.272959078         1.076177195    
HB         2.955862284         3.504523776       -0.2735436183    
C          1.074759891         2.858026323        -2.353233479    
O          1.344423785         3.988636101        -2.776520635    
N         0.7635439152         1.852733584        -3.185658201    
H         0.5499604420        0.9576301396        -2.768008440    
CH        0.7135394669         1.953608769        -4.645053373    
HH        0.4314997277        0.9920197079        -5.078383562    
HH         1.692264469         2.241750704        -5.034388054    
HH       -0.2087364137E-01     2.704163742        -4.944757123    
    52
Energy=    -33.5198416256877    
HH        -6.096390427        0.5049238466        0.6813915747    
CH        -5.313198381         1.076777117         1.177523654    
HH        -5.748179978         1.672162130         1.979372661    
HH        -4.830828817         1.734226150        0.4552777780    
C         -4.286099856        0.1252618437         1.749130623    
O         -4.056926183        0.1156013466         2.959020746    
N         -3.669813417       -0.6747229342        0.8800585311    
H         -3.917752997       -0.5919205048       -0.9457465310E-01
CA        -2.628012486        -1.640868693         1.241717393    
HA        -2.961508838        -2.188164149         2.125813023    
CB        -2.481107816        -2.651632958        0.9519010810E-01
HB        -1.756524316        -3.420229113        0.3682083479    
HB        -2.139493779        -2.145746637       -0.8095824074    
HB        -3.441181105        -3.131488260       -0.1014443743    
C         -1.280607018       -0.9701382794         1.591041229    
O        -0.9679417301        0.1282783615         1.119674210    
N        -0.4442267187        -1.662719881         2.373727113    
H        -0.7504238584        -2.563544342         2.715593695    
CA        0.8529687842        -1.161878167         2.852159683    
HA        0.6858660009       -0.2025018826         3.345395473    
CB         1.377158391        -2.149183950         3.903320099    
HB         1.559585745        -3.123035373         3.445871222    
HB        0.6484499119        -2.258001561         4.708037931    
HB         2.310674090        -1.774789532         4.325960531    
C          1.897110572       -0.9204266687         1.734941740    
O          2.870934797       -0.1912671725         1.944126448    
N          1.687945080        -1.490906732        0.5412173574    
H         0.8949327818        -2.109195359        0.4503569900    
CA         2.529645688        -1.289700939       -0.6437534049    
HA         3.575133945        -1.341864428       -0.3343308519    
CB         2.266047870        -2.458465928        -1.603441299    
HB         2.930441398        -2.384553912        -2.465506539    
HB         1.231340491        -2.434273127        -1.949336502    
HB         2.456416067        -3.405977541        -1.097026674    
C          2.334196127        0.8090404920E-01    -1.342262315    
O          3.116344258        0.4098331273        -2.237714032    
N          1.303667339        0.8484892985       -0.9460946244    
H         0.7193436242        0.4527653104       -0.2212800857    
CA        0.9178523769         2.207505594        -1.368762054    
HA       -0.8133345053E-01     2.140843679        -1.803155415    
CB        0.7975965717         3.065214992       -0.9893046884E-01
HB        0.4745451268         4.072552280       -0.3651674073    
HB        0.6117255427E-01     2.630907318        0.5777708501    
HB         1.760958037         3.121731518        0.4102811227    
C          1.825607239         2.894197178        -2.422728592    
O          2.871730039         3.469804644        -2.094674457    
N          1.399221465         2.865881362        -3.693731689    
H         0.5333712656         2.379743102        -3.885811415    
CH         2.104624767         3.469149927        -4.825576287    
HH         1.547268283         3.299504406        -5.748921501    
HH         3.097568746         3.026050144        -4.927112341    
HH         2.211832038         4.544889096        -4.671260741    
    52
Energy=    -39.7045784537054    
HH        -5.821179728        0.9679736780        0.8881589137    
CH        -4.963118095         1.526718269         1.259735704    
HH        -5.293222092         2.250554860         2.003862370    
HH        -4.482859682         2.047342481        0.4321347902    
C         -3.975400762        0.5674504947         1.885218952    
O         -3.664004276        0.6849979110         3.070835539    
N         -3.484936213       -0.3813385405         1.088891866    
H         -3.794806097       -0.3970657312        0.1287631923    
CA        -2.492360755        -1.377458669         1.504011587    
HA        -2.800170581        -1.787577430         2.468049900    
CB        -2.499508580        -2.524536933        0.4831713380    
HB        -1.815507988        -3.311723226        0.8037026621    
HB        -2.186137436        -2.157475177       -0.4958110391    
HB        -3.503250592        -2.945391951        0.4053237134    
C         -1.079044192       -0.7790335291         1.682571417    
O        -0.7338525546        0.2434234598         1.082108423    
N        -0.2266211147        -1.453394067         2.463310601    
H        -0.5594029347        -2.290591840         2.921993203    
CA         1.142500768        -1.009723226         2.764048492    
HA         1.092530078        0.4780719578E-02     3.163840528    
CB         1.701551098        -1.924746527         3.861481717    
HB         1.768689312        -2.951092662         3.496772928    
HB         1.052949443        -1.893708119         4.738264771    
HB         2.696977230        -1.584895087         4.151037822    
C          2.080790804       -0.9678468755         1.533179921    
O          3.100007582       -0.2715245444         1.554952372    
N          1.734176496        -1.679949488        0.4528722921    
H         0.9103988728        -2.259700177        0.5195832794    
CA         2.470013972        -1.692211923       -0.8160808301    
HA         3.538049309        -1.638171290       -0.5976895051    
CB         2.202162937        -3.042164088        -1.495705567    
HB         2.793992980        -3.118672946        -2.408882523    
HB         1.144579659        -3.131538658        -1.749305360    
HB         2.484354313        -3.857370061       -0.8276841992    
C          2.142937448       -0.5025716409        -1.753297260    
O          2.819333300       -0.3222754102        -2.771744436    
N          1.121249752        0.3064225974        -1.440890905    
H         0.6150278358        0.1348446305       -0.5820503034    
CA        0.7067496481         1.458272746        -2.249397860    
HA        0.7117445617         1.156009832        -3.298685376    
CB       -0.7390318930         1.823201829        -1.885369997    
HB        -1.098288924         2.612749004        -2.546655409    
HB        -1.383837571        0.9503617938        -1.998029402    
HB       -0.7868454344         2.177564411       -0.8548875084    
C          1.660077017         2.669083625        -2.113347823    
O          2.356221891         2.829651130        -1.102896234    
N          1.671349335         3.543020847        -3.129539006    
H          1.066189777         3.350849384        -3.917085965    
CH         2.491946991         4.754152114        -3.182823404    
HH         2.315490237         5.286083565        -4.119816789    
HH         3.550575618         4.493507226        -3.119918090    
HH         2.240769529         5.414733008        -2.350283505    
