    52
Energy=    -35.3093212065806    
HH        -4.063138434         2.909452290        0.2492273409    
CH        -3.006271483         2.720228861        0.6497681318E-01
HH        -2.463471246         3.664718435        0.5163107214E-01
HH        -2.891192918         2.218848444       -0.8950462670    
C         -2.461290165         1.835332832         1.163749788    
O         -1.575455214         2.250405739         1.910453273    
N         -2.988603099        0.6159465760         1.261002574    
H         -3.708304049        0.3573270087        0.6025637388    
CA        -2.561042442       -0.3905399668         2.237683259    
HA        -2.467846947        0.9606417625E-01     3.210734407    
CB        -3.658305060        -1.457221616         2.355065673    
HB        -4.602281075       -0.9893693435         2.638679338    
HB        -3.783051094        -1.972499696         1.401238480    
HB        -3.384772333        -2.186263425         3.119172757    
C         -1.188673545        -1.011411784         1.893132104    
O        -0.8056683109        -1.094659113        0.7211216735    
N        -0.4636742019        -1.476885663         2.918382802    
H        -0.8574661441        -1.382963098         3.844120558    
CA        0.8684664213        -2.089997428         2.825899333    
HA         1.284021796        -2.091382910         3.835149941    
CB        0.7245928549        -3.570579891         2.429498462    
HB        0.2717965965        -3.660949583         1.441011771    
HB        0.8984596678E-01    -4.083069457         3.153871343    
HB         1.704581718        -4.050441593         2.425949236    
C          1.870814690        -1.261029979         1.983454598    
O          2.306315672       -0.1918042370         2.421392254    
N          2.233436390        -1.728516041        0.7820145486    
H          1.837213438        -2.606686314        0.4793308055    
CA         3.170173153        -1.057474887       -0.1281411811    
HA         4.006405671       -0.6757455860        0.4604569266    
CB         3.722382008        -2.116376464        -1.091864852    
HB         2.917888012        -2.513723050        -1.712795033    
HB         4.479458120        -1.667830513        -1.736488300    
HB         4.180949608        -2.930182578       -0.5281380459    
C          2.569860156        0.1498135300       -0.8921322967    
O          3.322022146        0.9124992770        -1.508678499    
N          1.242222042        0.3359564328       -0.8376666743    
H         0.7108357719       -0.3288507157       -0.2881107919    
CA        0.4569838663         1.348298606        -1.559550946    
HA       -0.5911229291         1.129176618        -1.349663359    
CB        0.7369978497         2.733213127       -0.9469791553    
HB         1.742671621         3.065527748        -1.206142498    
HB        0.1773843177E-01     3.462706902        -1.320084508    
HB        0.6455117556         2.684418741        0.1388524526    
C         0.5840138202         1.297931320        -3.106586394    
O          1.265893286        0.4380330376        -3.678318065    
N        -0.1233680811         2.202490931        -3.799320874    
H        -0.6709675187         2.869428623        -3.272176759    
CH       -0.1555418647         2.302734990        -5.259641634    
HH       -0.5411173291         1.376660792        -5.691247382    
HH       -0.8007924427         3.128809114        -5.565085302    
HH        0.8503253660         2.480430580        -5.645958504    
    52
Energy=    -31.2736332346152    
HH        -5.035539816         2.313563058        0.5760753572    
CH        -3.975509182         2.560767081        0.6185056841    
HH        -3.853680045         3.588340472        0.9589819567    
HH        -3.537084797         2.450298429       -0.3725223466    
C         -3.281665443         1.620428709         1.578413897    
O         -2.695658905         2.065446985         2.565786884    
N         -3.348107623        0.3217548669         1.288567630    
H         -3.845082887        0.4960929039E-01    0.4536895745    
CA        -2.703662930       -0.7345884378         2.075649908    
HA        -2.913561519       -0.5488996880         3.131004101    
CB        -3.344612919        -2.079044409         1.703152685    
HB        -4.421509912        -2.036839097         1.873465829    
HB        -3.154285201        -2.306302465        0.6528795381    
HB        -2.923806267        -2.874256511         2.320209320    
C         -1.167067007       -0.7615240046         1.903697931    
O        -0.6438524337       -0.3053420516        0.8850427117    
N        -0.4711494064        -1.321287421         2.903455067    
H         -1.027115887        -1.654403715         3.678397397    
CA        0.9803718968        -1.542449978         3.050816714    
HA         1.287561175        -1.004144235         3.949271892    
CB         1.200172822        -3.036270250         3.338504944    
HB        0.8488784733        -3.642245563         2.501967263    
HB        0.6542492572        -3.324652743         4.238038777    
HB         2.262219897        -3.228308371         3.499356049    
C          1.918393213        -1.037902036         1.923826049    
O          2.663963136       -0.7458076436E-01     2.126322614    
N          1.914990407        -1.692111790        0.7544098367    
H          1.266770155        -2.458934352        0.6484745334    
CA         2.852880715        -1.437671832       -0.3478126723    
HA         3.855184412        -1.346287622        0.7462049399E-01
CB         2.842172409        -2.671980802        -1.259530311    
HB         1.857388479        -2.793237533        -1.713579010    
HB         3.584692239        -2.552009600        -2.049569911    
HB         3.087629659        -3.564417393       -0.6818927574    
C          2.587402879       -0.1399334710        -1.151590573    
O          3.457632633        0.2872552467        -1.918495496    
N          1.419067670        0.4902682389       -0.9664871153    
H         0.7828194061        0.7428600928E-01   -0.2959152237    
CA        0.9186407997         1.671283524        -1.685355389    
HA       -0.1043306458         1.829895324        -1.339264458    
CB         1.718207630         2.908516596        -1.236232210    
HB         2.736451109         2.862775142        -1.623743133    
HB         1.242019558         3.818154397        -1.603176448    
HB         1.750708833         2.953290603       -0.1465633182    
C         0.8088625107         1.506474586        -3.225874735    
O          1.096354219        0.4443938728        -3.792279332    
N         0.3380454607         2.558148846        -3.911952077    
H         0.1070845312         3.390935692        -3.386673123    
CH        0.1397570732         2.593892361        -5.362140632    
HH       -0.5758759199         1.825593905        -5.662382223    
HH       -0.2443495329         3.570156062        -5.664474273    
HH         1.086935922         2.414096637        -5.875077869    
    52
Energy=    -37.1738336533538    
HH        -5.501903400         1.871863719        0.9293303262    
CH        -4.603394292         2.295723777         1.376089038    
HH        -4.882536480         3.009589920         2.150132409    
HH        -4.019338825         2.800541843        0.6075846990    
C         -3.775477131         1.184828066         1.982285542    
O         -3.516119703         1.192219444         3.186065715    
N         -3.362560139        0.2303352841         1.149491299    
H         -3.619143768        0.3100726905        0.1768269767    
CA        -2.531737487       -0.9103581409         1.547177617    
HA        -2.947184754        -1.332426069         2.464593124    
CB        -2.624783931        -1.985307200        0.4546614539    
HB        -3.667592624        -2.266086125        0.2984805492    
HB        -2.209952611        -1.606307154       -0.4810595052    
HB        -2.066521767        -2.872287076        0.7578321696    
C         -1.066658498       -0.5155210478         1.838464439    
O        -0.5474230394        0.4687722463         1.300890016    
N        -0.3703670956        -1.325070322         2.645849584    
H        -0.8465957354        -2.122447518         3.045291838    
CA         1.018259900        -1.084170634         3.064995363    
HA         1.073230428       -0.8775368306E-01     3.507407952    
CB         1.363404820        -2.106698667         4.155612455    
HB         1.320177364        -3.118632464         3.749331324    
HB        0.6592526205        -2.018962707         4.984403244    
HB         2.370147477        -1.917371705         4.530966964    
C          2.045799332        -1.125813128         1.908449511    
O          3.134106425       -0.5549462572         2.025264891    
N          1.697337331        -1.756906647        0.7795833819    
H         0.8111798799        -2.240743575        0.7672560389    
CA         2.503903626        -1.785763662       -0.4459435526    
HA         3.548422480        -1.938949554       -0.1686098449    
CB         2.054667152        -2.999360632        -1.270766958    
HB         1.016291343        -2.876933665        -1.583090682    
HB         2.682903522        -3.094248895        -2.157460603    
HB         2.149596127        -3.909271643       -0.6762839647    
C          2.442540992       -0.4775543286        -1.275092372    
O          3.235220096       -0.3138118023        -2.208941938    
N          1.532743081        0.4487067154       -0.9312704003    
H         0.9437636752        0.2399190452       -0.1355250574    
CA         1.233629126         1.702627066        -1.639870465    
HA        0.3715875790         2.143260609        -1.135606176    
CB         2.399220687         2.687536974        -1.431643081    
HB         3.277808984         2.358467363        -1.987376170    
HB         2.117094630         3.682864501        -1.776040672    
HB         2.647781487         2.748912969       -0.3710530450    
C         0.7978543562         1.531445066        -3.120845526    
O         0.6738004431        0.4150779203        -3.640142915    
N         0.5114843207         2.652483435        -3.798720723    
H         0.6181193331         3.531732061        -3.310469824    
CH        0.6316637575E-01     2.699891577        -5.191725108    
HH       -0.8776243391         2.156501390        -5.302196407    
HH       -0.9001862733E-01     3.735519285        -5.501645112    
HH        0.8124395548         2.244811138        -5.842937816    
