    52
Energy=    -36.0052301474995    
HH        -1.475767311         3.046342417         6.069015870    
CH        -1.538823818         1.964570071         5.957134121    
HH        -2.327634681         1.576899515         6.600838594    
HH       -0.5865357302         1.515031829         6.235905581    
C         -1.847598594         1.629942104         4.515646594    
O         -2.867858603         1.004008789         4.229951286    
N        -0.9603445567         2.038283759         3.608245566    
H        -0.1581988008         2.558058424         3.935239793    
CA        -1.109197099         1.848438755         2.159197369    
HA        -2.152053621         2.032994796         1.895104365    
CB       -0.2547600158         2.912031103         1.455186787    
HB       -0.4053899453         2.850801262        0.3765877166    
HB        0.8017231115         2.751896018         1.676479408    
HB       -0.5480419429         3.907424876         1.792149821    
C        -0.7677996350        0.4235710642         1.661360088    
O         -1.054801692        0.9618545180E-01    0.5063632665    
N        -0.1606169122       -0.4193966265         2.508801618    
H         0.3536821303E-01   -0.7034638273E-01     3.435547632    
CA        0.2922623616        -1.783191718         2.203344092    
HA        0.9639331654        -2.078381628         3.011426949    
CB       -0.9008429852        -2.753076805         2.275850228    
HB        -1.648977895        -2.498730664         1.523729730    
HB        -1.361667808        -2.692439391         3.262868540    
HB       -0.5569707444        -3.775987996         2.114645796    
C          1.153683863        -1.867438177        0.9190295370    
O          2.306767588        -1.425773731        0.9226970514    
N         0.6113222094        -2.407206970       -0.1801062388    
H        -0.3372752144        -2.748716019       -0.1195353139    
CA         1.297748268        -2.525401853        -1.472572187    
HA         2.305434883        -2.905314262        -1.294305796    
CB        0.5428285064        -3.567369386        -2.308802505    
HB       -0.4707710706        -3.220403653        -2.516264905    
HB         1.063788221        -3.727655696        -3.253847165    
HB        0.4975687905        -4.514888365        -1.769691358    
C          1.445525475        -1.186295221        -2.236214631    
O          2.253434499        -1.098707064        -3.165890241    
N         0.6844570632       -0.1505090996        -1.851879309    
H         0.5629311220E-01   -0.3032642833        -1.070546950    
CA        0.6956415144         1.203950076        -2.424186101    
HA       -0.1771452244         1.709580304        -2.007796442    
CB         1.924824251         1.964021746        -1.897671981    
HB         1.859928278         3.014777966        -2.182536900    
HB         1.963786377         1.899028551       -0.8095048872    
HB         2.837099723         1.537178219        -2.315832120    
C         0.4929557088         1.272869226        -3.961934328    
O          1.023148045         2.165431022        -4.634573110    
N        -0.2744950686        0.3291305930        -4.528078881    
H        -0.6781966684       -0.3654316374        -3.914672076    
CH       -0.5660095512        0.2280145483        -5.958897258    
HH        0.3607024193        0.9790646122E-01    -6.521730322    
HH        -1.216851044       -0.6275271042        -6.149751335    
HH        -1.065599110         1.135084583        -6.305525062    
    52
Energy=    -34.3655232525508    
HH        -1.473392084         3.471295261         5.339043015    
CH        -1.223755078         2.424063225         5.505501551    
HH        -1.641224382         2.096601596         6.457005805    
HH       -0.1407964717         2.307678801         5.522894022    
C         -1.798920406         1.590334539         4.383418299    
O         -2.609618721        0.6973839348         4.627740455    
N         -1.371878046         1.875120163         3.152931339    
H        -0.7179140570         2.637928844         3.046836479    
CA        -1.853037711         1.208907621         1.935364735    
HA        -2.937593804         1.106571612         2.004789500    
CB        -1.542753175         2.128954814        0.7458129297    
HB        -1.942486868         1.693614338       -0.1713784216    
HB       -0.4640934099         2.256644550        0.6400270208    
HB        -2.007552754         3.104053527        0.9000610126    
C         -1.278482819       -0.2105635126         1.714075131    
O         -1.826758437       -0.9676590399        0.9094873708    
N        -0.1895896173       -0.5646475683         2.413659146    
H         0.1590098235        0.1332542428         3.055433631    
CA        0.6012112767        -1.807145220         2.336894394    
HA         1.442725115        -1.669415082         3.018436587    
CB       -0.2130805940        -2.976445831         2.911884154    
HB        -1.070073613        -3.195359857         2.274097443    
HB       -0.5659267207        -2.725383894         3.913160529    
HB        0.4168489785        -3.864927710         2.973447754    
C          1.243136039        -2.122880331        0.9634111967    
O          2.466525845        -2.261040320        0.8738104920    
N         0.4486889542        -2.211592399       -0.1075566399    
H        -0.5467610775        -2.090199945        0.4510132330E-01
CA        0.9055664155        -2.460294184        -1.479927210    
HA         1.743299583        -3.159434700        -1.449996473    
CB       -0.2443552020        -3.137778051        -2.236867309    
HB        -1.103595383        -2.467502177        -2.293999147    
HB        0.7873317349E-01    -3.389415721        -3.248042515    
HB       -0.5363550981        -4.055397423        -1.723910950    
C          1.397262909        -1.189212461        -2.212166856    
O          2.111440802        -1.294771413        -3.213552165    
N          1.025738792        0.2512285532E-02    -1.718334951    
H         0.4452836369       -0.8109200860E-02   -0.8929654133    
CA         1.392877797         1.322546610        -2.256041531    
HA        0.7620078332         2.045885147        -1.736609047    
CB         2.840964231         1.646405926        -1.851412498    
HB         3.074441355         2.680457589        -2.107895876    
HB         2.963490801         1.517719475       -0.7751491247    
HB         3.533397606        0.9852230966        -2.373620417    
C          1.073242974         1.533124410        -3.761016207    
O          1.778874478         2.265466016        -4.465146794    
N         0.7876401343E-02    0.8907546192        -4.263567335    
H        -0.5240997644        0.3123798131        -3.627974955    
CH       -0.4367016886        0.9604105909        -5.656468737    
HH        0.3500678361        0.5946769079        -6.319604021    
HH        -1.328778311        0.3468429681        -5.796888610    
HH       -0.6731370585         1.992363313        -5.924232113    
    52
Energy=    -36.1865992231612    
HH        -3.132450826         2.903062159         5.544782280    
CH        -2.161261785         2.411074798         5.582770079    
HH        -1.831276023         2.335210021         6.618243998    
HH        -1.438087548         2.991329763         5.010980128    
C         -2.279487059         1.028275763         4.983611044    
O         -2.012675864        0.3526866949E-01     5.659737552    
N         -2.670652603        0.9641545794         3.710714210    
H         -2.883967325         1.831918955         3.239511194    
CA        -2.886957444       -0.2879533870         2.973995849    
HA        -3.413709915       -0.9849758779         3.628309249    
CB        -3.804187143        0.2223578272E-01     1.782842786    
HB        -4.039430315       -0.8999567914         1.249469566    
HB        -3.310292329        0.7128941020         1.097389531    
HB        -4.734944712        0.4681185160         2.136827519    
C         -1.586692090       -0.9918843134         2.517389470    
O         -1.624958571        -2.170350287         2.151091785    
N        -0.4459591820       -0.2847474142         2.530974295    
H        -0.5043360553        0.6684620656         2.860714329    
CA        0.8831410494       -0.7689970685         2.123074159    
HA         1.523054711        0.1136114417         2.071455466    
CB         1.462086274        -1.657122914         3.237696885    
HB        0.8927501444        -2.584188131         3.313531555    
HB         1.419098633        -1.130270041         4.191896772    
HB         2.503299802        -1.896058490         3.017640683    
C         0.9441403645        -1.386376439        0.7005027088    
O          1.741319842        -2.290962356        0.4307395381    
N         0.9892012050E-01   -0.9005142106       -0.2187838679    
H        -0.5301377135       -0.1631310714        0.6546273153E-01
CA       -0.5354743922E-01    -1.439049328        -1.576624940    
HA       -0.3284888917E-01    -2.528859212        -1.518326967    
CB        -1.440385723        -1.025241380        -2.087490023    
HB        -1.502787518        0.6110862686E-01    -2.169568966    
HB        -1.617048734        -1.466383701        -3.069527281    
HB        -2.210521608        -1.380849718        -1.401065397    
C          1.064567677        -1.018612597        -2.560327213    
O          1.219466631        -1.643347734        -3.614030929    
N          1.840842239        0.2384428426E-01    -2.226240656    
H          1.647629576        0.4731494828        -1.342708996    
CA         2.957581995        0.5660960648        -3.017472902    
HA         3.228109339         1.512415650        -2.545968494    
CB         4.179647862       -0.3555399347        -2.864147005    
HB         5.055576047        0.1135019607        -3.313889205    
HB         4.382084447       -0.5310763654        -1.806760415    
HB         3.994392582        -1.310117367        -3.357823282    
C          2.605807706        0.9435503375        -4.482248881    
O          3.450106931        0.8567707407        -5.382211646    
N          1.355813195         1.362968353        -4.730910711    
H         0.7218495461         1.412834466        -3.945286985    
CH        0.8430644653         1.747437639        -6.046968527    
HH        0.9136131150        0.9043826663        -6.737475656    
HH       -0.2025995279         2.051360922        -5.968254351    
HH         1.423239949         2.581528116        -6.447242068    
