    52
Energy=    -38.3342074939454    
HH        -5.074638968        -6.211140968       -0.2798950480    
CH        -4.481481756        -6.656334598        0.5179364836    
HH        -5.126141921        -7.252138804         1.163003176    
HH        -3.710319714        -7.292381641        0.8511629615E-01
C         -3.826822767        -5.558061285         1.325938288    
O         -4.065575440        -5.451695172         2.529301474    
N         -3.005353709        -4.746140299        0.6616807811    
H         -2.887168226        -4.908708950       -0.3281634677    
CA        -2.277173865        -3.612446214         1.243559325    
HA        -2.814465067        -3.257617845         2.125255687    
CB       -0.8905707698        -4.100323452         1.690665901    
HB       -0.9969659651        -4.913118455         2.410441794    
HB       -0.3236083392        -4.455880504        0.8288384947    
HB       -0.3438042115        -3.283623650         2.163871571    
C         -2.166243046        -2.422609901        0.2640655900    
O         -2.281522921        -2.585971966       -0.9566697808    
N         -1.922363846        -1.221455614        0.7989971253    
H         -1.822842315        -1.158879319         1.801939410    
CA        -1.739946379        0.8404546563E-02    0.2099012646E-01
HA        -2.525821783        0.5439675243E-01   -0.7359015693    
CB        -1.926846433         1.209859976        0.9584558252    
HB        -1.150845938         1.210976395         1.725909636    
HB        -2.906372255         1.158657554         1.436560432    
HB        -1.865101127         2.138417572        0.3891392613    
C        -0.3815107246        0.6052046066E-01   -0.7155954938    
O         0.5945386127       -0.5801985212       -0.3099011172    
N        -0.3086935805        0.8626343125        -1.784445069    
H         -1.146350163         1.350470883        -2.071382875    
CA        0.8976252986         1.045025302        -2.603677229    
HA         1.398672386        0.8021598164E-01    -2.701314960    
CB        0.4496429024         1.480387451        -4.005472029    
HB       -0.4543965150E-01     2.451594148        -3.956805850    
HB         1.317688817         1.556829355        -4.661768634    
HB       -0.2390390358        0.7434128824        -4.421382103    
C          1.930763336         2.029417724        -2.002152890    
O          3.075679640         2.082544589        -2.463838444    
N          1.546602565         2.809032811       -0.9836610509    
H         0.5997621958         2.714276003       -0.6505993981    
CA         2.411683147         3.777565285       -0.3028391212    
HA         2.947141659         4.350217311        -1.062938652    
CB         1.523087233         4.757465880        0.4757790231    
HB         2.141149393         5.525348955        0.9431564627    
HB        0.9701550617         4.225934219         1.252101717    
HB        0.8185665230         5.240504971       -0.2030674381    
C          3.469886396         3.111172179        0.6080493081    
O          3.274920174         1.997663311         1.111187490    
N          4.586868494         3.812659479        0.8461949070    
H          4.668991247         4.721666277        0.4098715907    
CH         5.694318843         3.361901565         1.690927248    
HH         6.481360681         4.118294120         1.713060332    
HH         5.342892438         3.189611226         2.710439876    
HH         6.111033174         2.431647481         1.299037587    
    52
Energy=    -36.0894767341513    
HH        -6.116429565        -4.217495229        -1.016196868    
CH        -5.637345914        -5.167381796       -0.7821994278    
HH        -6.380153968        -5.866228530       -0.3994121572    
HH        -5.182367219        -5.576077982        -1.683604880    
C         -4.564631582        -4.942287328        0.2600182968    
O         -4.629070149        -5.519142755         1.346053632    
N         -3.584000266        -4.104321477       -0.7375545425E-01
H         -3.630200581        -3.669834635       -0.9844873777    
CA        -2.453679908        -3.733548614        0.7858668683    
HA        -2.744350090        -3.856007245         1.831101184    
CB        -1.285980664        -4.689515079        0.4963103552    
HB        -1.597086983        -5.720032072        0.6734105567    
HB       -0.9655204369        -4.584968495       -0.5415556911    
HB       -0.4457589358        -4.460692669         1.153293854    
C         -2.033701904        -2.259315069        0.5953953752    
O         -2.317572328        -1.642306498       -0.4377762637    
N         -1.330560913        -1.697598514         1.585020837    
H         -1.120743786        -2.261296082         2.396817222    
CA       -0.8226649801       -0.3227592047         1.568676797    
HA        -1.568171212        0.3223891465         1.098940282    
CB       -0.6669046515        0.1516181784         3.021696110    
HB        0.5023861882E-01   -0.4773424320         3.551614936    
HB        -1.630274890        0.1044313224         3.531554585    
HB       -0.3132464712         1.183562210         3.034262868    
C         0.4788148562       -0.2103850448        0.7418313001    
O          1.588627490       -0.3426704873         1.268345636    
N         0.3387174904        0.2388531255E-01   -0.5677185554    
H        -0.6010146137        0.6203237007E-01   -0.9403591650    
CA         1.451626440        0.1127721104        -1.522328760    
HA         2.205548714       -0.6262745311        -1.245122975    
CB        0.9099442549       -0.2724948380        -2.905492671    
HB        0.1598780664        0.4507098766        -3.229606518    
HB         1.726013583       -0.2867415225        -3.629266706    
HB        0.4605369115        -1.265921297        -2.865139370    
C          2.159745558         1.489265135        -1.548296594    
O          3.256129458         1.609658078        -2.105373737    
N          1.553651362         2.526554200       -0.9574604452    
H         0.6612233111         2.361414081       -0.5178654864    
CA         2.106118859         3.883087955       -0.8863071256    
HA         2.489734794         4.147572262        -1.873868892    
CB        0.9651425002         4.855600131       -0.5571212245    
HB         1.340544698         5.879881678       -0.5591388723    
HB        0.5536919089         4.630515425        0.4282175358    
HB        0.1763145598         4.770477321        -1.306123045    
C          3.278073291         4.008751917        0.1158128836    
O          3.376635402         3.249014385         1.087546835    
N          4.156800334         4.996217142       -0.1059595933    
H          4.002951814         5.584965159       -0.9141178244    
CH         5.319933829         5.286158098        0.7344379635    
HH         5.872484085         6.136547437        0.3299863311    
HH         4.998773756         5.526018824         1.750270755    
HH         5.983536367         4.419539471        0.7691726792    
    52
Energy=    -39.6092682916872    
HH        -5.429503113        0.1963959741       -0.9504799971    
CH        -5.382981496       -0.7183603376        -1.540080727    
HH        -6.388272614        -1.114063114        -1.679673194    
HH        -4.937989846       -0.5022745015        -2.510579116    
C         -4.530580950        -1.736442414       -0.8159674710    
O         -5.012564430        -2.819150229       -0.4817818937    
N         -3.268079182        -1.384778231       -0.5762339032    
H         -2.973936423       -0.4663197330       -0.8766704906    
CA        -2.274218620        -2.209015557        0.1214621060    
HA        -2.788290233        -2.898289275        0.7942622990    
CB        -1.505788128        -3.034456262       -0.9227047101    
HB        -2.202063330        -3.649907902        -1.494267067    
HB       -0.9712027564        -2.371338079        -1.605093252    
HB       -0.7887003540        -3.689811673       -0.4263411887    
C         -1.313651439        -1.357308246        0.9782101864    
O         -1.132335649       -0.1608955230        0.7326954664    
N        -0.6483867654        -1.982098825         1.956648565    
H        -0.8302856383        -2.965587431         2.104802798    
CA        0.2700156516        -1.311351294         2.888663134    
HA       -0.2617713102       -0.4779251847         3.351478525    
CB        0.6320304067        -2.313768219         3.992410364    
HB         1.169353074        -3.163019184         3.567023357    
HB       -0.2745519188        -2.668744192         4.484841277    
HB         1.266200356        -1.828417564         4.735698458    
C          1.538103095       -0.7261541565         2.220649053    
O          2.182357436        0.1618836080         2.786723315    
N          1.885816296        -1.191240135         1.013621893    
H          1.338951560        -1.947215016        0.6281258979    
CA         3.011973713       -0.6942339831        0.2157274037    
HA         3.837757204       -0.4607453099        0.8901858372    
CB         3.469963140        -1.835013878       -0.7034013132    
HB         2.677515251        -2.089802431        -1.409020643    
HB         4.355612736        -1.526183659        -1.260411659    
HB         3.721104770        -2.714242356       -0.1081479849    
C          2.704892002        0.5976720925       -0.5824192997    
O          3.622785141         1.197804579        -1.152111501    
N          1.439725507         1.035236908       -0.6437411259    
H         0.7278707657        0.5241098366       -0.1387309883    
CA         1.019322426         2.238251153        -1.370379862    
HA         1.521962526         2.242637609        -2.339777233    
CB       -0.4895768228         2.151429619        -1.637395616    
HB       -0.8032764265         2.990396225        -2.259924929    
HB        -1.038145068         2.186775801       -0.6952189480    
HB       -0.7231305671         1.221465953        -2.157930193    
C          1.403187997         3.549853731       -0.6452656902    
O          1.565316312         3.583388041        0.5811010666    
N          1.522923652         4.645819290        -1.407538150    
H          1.363825243         4.542802215        -2.401247408    
CH         1.864504109         5.979080218       -0.9087291795    
HH         1.901263769         6.691072170        -1.735628650    
HH         1.114768391         6.314036511       -0.1888119235    
HH         2.840180849         5.958042164       -0.4186256944    
