    52
Energy=    -35.9281441273791    
HH        -6.867736117       -0.3245271588        0.9709958973    
CH        -6.070948167        -1.067329390        0.9632758995    
HH        -6.462379775        -2.025678541         1.302294354    
HH        -5.679779692        -1.172358704       -0.4793372156E-01
C         -4.956427990       -0.6287894394         1.886803917    
O         -5.047937520        0.4331969039         2.503230900    
N         -3.908621824        -1.446839299         1.976996367    
H         -3.924777777        -2.289583260         1.420277426    
CA        -2.716144562        -1.212859203         2.799991799    
HA        -2.604609092       -0.1399677775         2.968900256    
CB        -2.920259015        -1.893106447         4.162299937    
HB        -3.030328242        -2.970603564         4.029642646    
HB        -2.061755715        -1.699565321         4.806901662    
HB        -3.815599745        -1.497809840         4.644199008    
C         -1.424856153        -1.706558112         2.110823676    
O         -1.465983767        -2.581128752         1.238624789    
N        -0.2755925294        -1.150847665         2.520088606    
H        -0.3327488610       -0.4599164048         3.256343824    
CA         1.071018714        -1.475284034         2.019829218    
HA         1.733715513       -0.7043676457         2.416941787    
CB         1.533858185        -2.804001434         2.641802642    
HB        0.9377864977        -3.629603593         2.251260131    
HB         1.425103359        -2.763983195         3.726452300    
HB         2.583632509        -2.979005714         2.402978540    
C          1.238370769        -1.385419376        0.4793863955    
O          2.032291108        -2.118401332       -0.1198302686    
N         0.4897850608       -0.4846476101       -0.1715048800    
H        -0.1426697074        0.8308378075E-01    0.3744476497    
CA        0.4473383164       -0.3389612121        -1.632538119    
HA        0.4340105499        -1.335870650        -2.076960642    
CB       -0.8754851680        0.3504317587        -1.993476630    
HB       -0.9018016440         1.357662140        -1.574452690    
HB       -0.9725764910        0.4143944596        -3.078241225    
HB        -1.714332245       -0.2266998235        -1.601108791    
C          1.661158554        0.4076423979        -2.235753808    
O          1.897651585        0.3153717014        -3.444117327    
N          2.428065887         1.136880913        -1.410527120    
H          2.164653373         1.152171522       -0.4357243344    
CA         3.625993725         1.905054744        -1.787454121    
HA         3.874409685         2.518932872       -0.9200058723    
CB         4.806063378        0.9375409707        -1.981691339    
HB         5.730905282         1.502161609        -2.105750764    
HB         4.905465917        0.2927895103        -1.107463514    
HB         4.644358127        0.3208536471        -2.866452929    
C          3.420534393         2.922400712        -2.942692729    
O          4.342064957         3.196011104        -3.721300108    
N          2.209515606         3.487439868        -3.062652194    
H          1.507036547         3.218982816        -2.387324293    
CH         1.830223523         4.454417647        -4.094074540    
HH         1.943684744         4.009343019        -5.084808212    
HH        0.7895079311         4.756364708        -3.960961846    
HH         2.465148307         5.340585496        -4.029987608    
    52
Energy=    -35.5768687282656    
HH        -6.867772824       -0.3491997265        0.9409277438    
CH        -6.068139833        -1.088972315        0.9378643906    
HH        -6.457358579        -2.048225582         1.276873613    
HH        -5.672287572        -1.194237536       -0.7149631839E-01
C         -4.959224348       -0.6446113325         1.865348218    
O         -5.057386652        0.4180706454         2.479548777    
N         -3.908706983        -1.458507638         1.961390342    
H         -3.919295732        -2.302257587         1.406063166    
CA        -2.720630911        -1.218579168         2.789025324    
HA        -2.613896009       -0.1449836242         2.956555937    
CB        -2.927933171        -1.897273178         4.151626697    
HB        -3.033338321        -2.975406912         4.020361174    
HB        -2.072914684        -1.699360878         4.799524512    
HB        -3.826807695        -1.504570445         4.629047170    
C         -1.424561555        -1.708527477         2.106184464    
O         -1.458660498        -2.584739544         1.235331057    
N        -0.2791677763        -1.147737012         2.519350384    
H        -0.3420755055       -0.4557709419         3.254163470    
CA         1.070777991        -1.467888588         2.025356614    
HA         1.728844827       -0.6937708326         2.423938151    
CB         1.536033003        -2.793764017         2.651578278    
HB        0.9447701243        -3.622301596         2.259943834    
HB         1.422529910        -2.752304347         3.735687172    
HB         2.587469013        -2.965170713         2.417502081    
C          1.244314489        -1.380022942        0.4854830364    
O          2.043555046        -2.110991973       -0.1091009623    
N         0.4950657735       -0.4832317242       -0.1701267844    
H        -0.1418654512        0.8300586147E-01    0.3721627720    
CA        0.4582283854       -0.3402420495        -1.631577524    
HA        0.4506414998        -1.337963756        -2.074309763    
CB       -0.8657164046        0.3433934622        -1.999303212    
HB       -0.8976878201         1.351254478        -1.582190531    
HB       -0.9584927578        0.4050641406        -3.084578438    
HB        -1.703973981       -0.2362840705        -1.609435632    
C          1.671671552        0.4100299368        -2.230973434    
O          1.913479819        0.3167632720        -3.438197185    
N          2.432299315         1.143634100        -1.403785327    
H          2.164945848         1.159255959       -0.4300480457    
CA         3.629162698         1.915437067        -1.776900636    
HA         3.871595719         2.531607553       -0.9093791867    
CB         4.813384420        0.9514823283        -1.963821610    
HB         5.737005416         1.518890830        -2.084197581    
HB         4.910609574        0.3084272594        -1.088100873    
HB         4.658028590        0.3328717065        -2.848377913    
C          3.425500317         2.930416195        -2.934781678    
O          4.351428339         3.203608023        -3.708197798    
N          2.211237457         3.490263606        -3.057579137    
H          1.514473090         3.213937572        -2.379492068    
CH         1.805301651         4.457293463        -4.081578758    
HH        0.9744905473         4.053420063        -4.663483584    
HH         1.482404199         5.386207083        -3.607412909    
HH         2.628646749         4.682562701        -4.762411491    
    52
Energy=    -35.9281441273834    
HH        -6.871743847       -0.3828245125        0.9200688279    
CH        -6.068420001        -1.118593901        0.9200661989    
HH        -6.453955488        -2.079587126         1.258355599    
HH        -5.668728952        -1.222453754       -0.8792637646E-01
C         -4.964794619       -0.6681701636         1.850929231    
O         -5.070283404        0.3943571516         2.464182059    
N         -3.910546704        -1.476752419         1.950899604    
H         -3.915093978        -2.320860130         1.396033970    
CA        -2.726412895        -1.230420173         2.782294653    
HA        -2.625591733       -0.1562094690         2.949545056    
CB        -2.934806032        -1.909363894         4.144605261    
HB        -3.034393933        -2.988085398         4.013626639    
HB        -2.082922959        -1.706813548         4.795194266    
HB        -3.837196256        -1.520883855         4.618837580    
C         -1.425673371        -1.714277903         2.104006045    
O         -1.452531522        -2.591142463         1.233555949    
N        -0.2844590746        -1.147542588         2.520611104    
H        -0.3532384905       -0.4554823971         3.254809091    
CA         1.068686738        -1.461230855         2.031247925    
HA         1.721566361       -0.6836124039         2.431541895    
CB         1.538487646        -2.784412806         2.659768304    
HB        0.9526599575        -3.616113002         2.266672205    
HB         1.421209204        -2.742907536         3.743473535    
HB         2.591531163        -2.950700436         2.429252888    
C          1.246853408        -1.373370573        0.4919027224    
O          2.051683526        -2.100679909       -0.9962265694E-01
N         0.4953061834       -0.4806990400       -0.1666897933    
H        -0.1462145529        0.8266890267E-01    0.3731711501    
CA        0.4625982293       -0.3386886602        -1.628335309    
HA        0.4613871896        -1.336676903        -2.070529203    
CB       -0.8634759582        0.3382086243        -2.000811570    
HB       -0.9018057812         1.346110795        -1.584337442    
HB       -0.9529434881        0.3988663061        -3.086421254    
HB        -1.700151307       -0.2454035096        -1.613424102    
C          1.674321509        0.4172159061        -2.224137854    
O          1.920721678        0.3243060183        -3.430471112    
N          2.428543309         1.155041940        -1.394862890    
H          2.157663402         1.170210851       -0.4221068033    
CA         3.622479600         1.932885947        -1.764553202    
HA         3.858940650         2.550884208       -0.8966893705    
CB         4.812440793        0.9753689507        -1.947662320    
HB         5.733192250         1.547833095        -2.066073921    
HB         4.910912690        0.3334923524        -1.071216477    
HB         4.662839846        0.3552863198        -2.832180268    
C          3.416801435         2.945773391        -2.923664126    
O          4.341736181         3.225733509        -3.695952109    
N          2.201800811         3.499850629        -3.054040194    
H          1.496636410         3.226740296        -2.383392969    
CH         1.821810748         4.461119999        -4.090529141    
HH        0.7775066226         4.754187560        -3.965948796    
HH         2.448418942         5.352988701        -4.023727471    
HH         1.946648165         4.014827672        -5.079345028    
