    52
Energy=    -35.9281441273796    
HH        -6.870351683       -0.3028113432        0.9594235891    
CH        -6.075458044        -1.047674193        0.9563857546    
HH        -6.469980802        -2.003558094         1.298764307    
HH        -5.682664898        -1.158035248       -0.5362553986E-01
C         -4.961550518       -0.6080312539         1.880128478    
O         -5.051492179        0.4568171963         2.491830600    
N         -3.916016368        -1.428362781         1.975797383    
H         -3.933289400        -2.273440522         1.422661201    
CA        -2.724488177        -1.193907140         2.800031162    
HA        -2.610519455       -0.1205904586         2.964556767    
CB        -2.932899464        -1.867787846         4.164850566    
HB        -3.045481614        -2.945558611         4.036598226    
HB        -2.075112841        -1.673681390         4.810235926    
HB        -3.828125794        -1.468143583         4.643364335    
C         -1.433179935        -1.693852352         2.115418224    
O         -1.474914279        -2.572043710         1.246893977    
N        -0.2832647361        -1.139332324         2.524467557    
H        -0.3400297267       -0.4451093547         3.257650209    
CA         1.063445755        -1.469348799         2.028140789    
HA         1.727371040       -0.6984341593         2.423199457    
CB         1.521711113        -2.796567830         2.656665854    
HB        0.9242580480        -3.622309644         2.268536849    
HB         1.411026516        -2.751625503         3.740927377    
HB         2.571479152        -2.975275609         2.420572276    
C          1.233914573        -1.386512227        0.4876457592    
O          2.027074923        -2.124081020       -0.1069310628    
N         0.4888616935       -0.4866271354       -0.1685042305    
H        -0.1431576064        0.8505239933E-01    0.3738206221    
CA        0.4495262426       -0.3470937871        -1.630224974    
HA        0.4344752865        -1.345860871        -2.070401319    
CB       -0.8708468050        0.3441250514        -1.996602894    
HB       -0.8953658929         1.353205425        -1.581943671    
HB       -0.9657411735        0.4036875169        -3.081812339    
HB        -1.711904478       -0.2291743767        -1.603350349    
C          1.666384784        0.3938137356        -2.234341709    
O          1.904904007        0.2957626590        -3.441851460    
N          2.433611869         1.124618591        -1.410799598    
H          2.168413515         1.144758666       -0.4365693189    
CA         3.634209572         1.888105989        -1.788752320    
HA         3.882572989         2.505058057       -0.9234725578    
CB         4.812156396        0.9167557195        -1.976622780    
HB         5.738673844         1.478473827        -2.101354237    
HB         4.908267180        0.2755038102        -1.099457858    
HB         4.650528443        0.2966986540        -2.859040230    
C          3.433524449         2.901014905        -2.948719389    
O          4.357210869         3.168930629        -3.726752324    
N          2.224185314         3.468628377        -3.073378177    
H          1.519756048         3.204863560        -2.398232770    
CH         1.849307147         4.432144468        -4.109642458    
HH         1.963482908         3.982540546        -5.098246670    
HH        0.8091216128         4.737318220        -3.979784865    
HH         2.486380879         5.316952962        -4.048152147    
    52
Energy=    -32.2662049080405    
HH        -6.969190222       -0.7510353323        0.8575612381    
CH        -6.134035910        -1.445354253        0.9419628806    
HH        -6.478797957        -2.378376282         1.386027156    
HH        -5.723432114        -1.644207515       -0.4720471147E-01
C         -5.057692088       -0.8437986153         1.817743617    
O         -5.214288685        0.2753120289         2.306872123    
N         -3.969309939        -1.587876313         2.010125019    
H         -3.932715195        -2.488530367         1.554165858    
CA        -2.802773382        -1.196452256         2.810155294    
HA        -2.750563901       -0.1067918342         2.854663871    
CB        -2.990075766        -1.725420842         4.240330030    
HB        -3.041122772        -2.815394958         4.232349365    
HB        -2.152295037        -1.412757920         4.865119803    
HB        -3.911851273        -1.326360519         4.666007169    
C         -1.477464124        -1.695530486         2.193230274    
O         -1.459787295        -2.665836151         1.428055955    
N        -0.3651896272        -1.034784642         2.544500332    
H        -0.4693573958       -0.2676717189         3.195199968    
CA         1.003702335        -1.341162114         2.095977879    
HA         1.618939986       -0.4948642093         2.406527429    
CB         1.527306738        -2.562354909         2.871283297    
HB        0.9814199178        -3.458539749         2.574122855    
HB         1.401099798        -2.403674003         3.943098072    
HB         2.588175923        -2.706505654         2.662803254    
C          1.187984144        -1.420375099        0.5568345538    
O          2.028067295        -2.173394908        0.5297192486E-01
N         0.4021624792       -0.6424348722       -0.1999124255    
H        -0.2673835209       -0.5101686336E-01    0.2715297255    
CA        0.3702966110       -0.6704143607        -1.668433384    
HA        0.4180276280        -1.711653785        -1.992590834    
CB       -0.9850775659       -0.1058027983        -2.114816176    
HB        -1.071923719        0.9410547767        -1.819364390    
HB        -1.073060720       -0.1768134284        -3.199846457    
HB        -1.794658225       -0.6789599037        -1.660175667    
C          1.547341113        0.6886773644E-01    -2.350955632    
O          1.806629580       -0.1720672532        -3.532985919    
N          2.257373544        0.9313445201        -1.606530938    
H          1.960788887         1.027328641       -0.6465531712    
CA         3.361470658         1.809780486        -2.027265507    
HA         3.609881714         2.416433164        -1.154237165    
CB         4.617549220        0.9714042506        -2.312426371    
HB         5.463308451         1.633625372        -2.501951505    
HB         4.847991116        0.3423013898        -1.451569594    
HB         4.461619394        0.3398340496        -3.187505209    
C          3.014156499         2.811546744        -3.159473076    
O          2.808457860         2.442706084        -4.321197227    
N          2.994319096         4.109786289        -2.823825739    
H          3.185032719         4.347266414        -1.859164533    
CH         2.711580058         5.210101773        -3.747766122    
HH         1.716947478         5.089666619        -4.182301401    
HH         2.750988708         6.164197357        -3.218408241    
HH         3.449427785         5.223656020        -4.552757551    
    52
Energy=    -34.6022075798427    
HH        -7.053203580        -1.056319775        0.9085896607    
CH        -6.186047269        -1.713526553        0.9615453007    
HH        -6.486581140        -2.682797129         1.357495939    
HH        -5.765105111        -1.843213928       -0.3473761170E-01
C         -5.140753115        -1.105817876         1.870077146    
O         -5.351133793       -0.2112137991E-01     2.413540342    
N         -4.018439143        -1.806013800         2.029370297    
H         -3.938371609        -2.680125777         1.529439753    
CA        -2.872905892        -1.399832107         2.852069664    
HA        -2.872336527       -0.3124279077         2.950154221    
CB        -3.037096315        -2.006754898         4.253848156    
HB        -3.036535915        -3.096209286         4.192199397    
HB        -2.215956691        -1.686048460         4.896399873    
HB        -3.977332190        -1.673025327         4.695096243    
C         -1.524567142        -1.804970448         2.216474818    
O         -1.459931471        -2.734542579         1.404661306    
N        -0.4452566855        -1.110760140         2.604123307    
H        -0.5865159615       -0.3822820098         3.291198635    
CA        0.9372162902        -1.329851334         2.146257714    
HA         1.511369819       -0.4719074371         2.500460403    
CB         1.516771881        -2.561858052         2.862371159    
HB         1.014261800        -3.466963119         2.519286403    
HB         1.381649338        -2.462487355         3.940220265    
HB         2.583564506        -2.645378765         2.651043710    
C          1.127310403        -1.324128799        0.6057866826    
O          2.002636440        -2.011151689        0.6858728773E-01
N         0.3069289008       -0.5475380564       -0.1146310664    
H        -0.3895283129       -0.1103643112E-01    0.3825835013    
CA        0.2820692599       -0.5006035786        -1.582618960    
HA        0.3809397746        -1.519932140        -1.960309307    
CB        -1.096237854        0.2222419311E-01    -2.008652584    
HB        -1.232979130         1.047321688        -1.660581493    
HB        -1.175499189        0.3597487050E-02    -3.096472293    
HB        -1.880128343       -0.6106791211        -1.589728860    
C          1.425566755        0.3282320955        -2.216806058    
O          1.701822080        0.1692140965        -3.410805845    
N          2.097043803         1.180100691        -1.425823682    
H          1.800974537         1.227951264       -0.4625125184    
CA         3.156367352         2.116964791        -1.835362713    
HA         3.391593104         2.724702728       -0.9596747537    
CB         4.432609394         1.316105404        -2.155339417    
HB         5.282339082         1.990113481        -2.267522500    
HB         4.649570190        0.6232222767        -1.340940263    
HB         4.304797374        0.7528117857        -3.080257471    
C          2.744232139         3.130742821        -2.938271596    
O          1.586715127         3.187048439        -3.372430034    
N          3.690520202         3.981289269        -3.362000575    
H          4.611639395         3.893093218        -2.953871896    
CH         3.493231219         5.021134099        -4.373774857    
HH         2.728356622         5.726885646        -4.042920490    
HH         4.425400520         5.564723890        -4.539969504    
HH         3.174945370         4.571825694        -5.316864835    
