    52
Energy=    -36.7091838691009    
HH        -4.469770691        0.7211969335       -0.7753393805    
CH        -4.684589477       -0.6474839108E-01   -0.5225001668E-01
HH        -5.615559202        0.1603598753        0.4665471324    
HH        -4.777941249        -1.019485106       -0.5683186331    
C         -3.560242177       -0.1498251814        0.9544507427    
O         -2.593977021        0.6085734578        0.8703754454    
N         -3.676631527        -1.076855939         1.904508019    
H         -4.496333156        -1.665653058         1.899190765    
CA        -2.665463340        -1.309654061         2.938546428    
HA        -2.455548716       -0.3564822911         3.428195504    
CB        -3.242939467        -2.258254938         3.997402261    
HB        -3.480965859        -3.223495249         3.547462449    
HB        -2.511954876        -2.407718589         4.793371019    
HB        -4.148417301        -1.827660176         4.427525805    
C         -1.345333118        -1.843179684         2.340126465    
O         -1.348725241        -2.783773380         1.538518153    
N        -0.2177845504        -1.238791216         2.738499502    
H        -0.3071772000       -0.4936329791         3.415958854    
CA         1.143024677        -1.538650714         2.264719532    
HA         1.775012625       -0.7328191737         2.642004895    
CB         1.639972863        -2.827711665         2.941493053    
HB         1.081109588        -3.687135896         2.569475892    
HB         1.509248047        -2.754251961         4.021973909    
HB         2.699634076        -2.973753580         2.728355330    
C          1.339203945        -1.502719592        0.7239876152    
O          2.267985046        -2.122406788        0.1948752784    
N         0.4833917710       -0.7749207466       -0.8036861267E-02
H        -0.2677559990       -0.2987348732        0.4727902706    
CA        0.4996448944       -0.7093428295        -1.475990832    
HA        0.7203035274        -1.706116324        -1.862351575    
CB       -0.9110315918       -0.3323650600        -1.947651655    
HB        -1.167655260        0.6698789008        -1.601412700    
HB       -0.9518621298       -0.3521485011        -3.037562088    
HB        -1.636808630        -1.047490988        -1.557598190    
C          1.568605243        0.2454268196        -2.059138181    
O          1.883268570        0.1579733082        -3.249929932    
N          2.127686672         1.146030880        -1.236108650    
H          1.815039009         1.144024080       -0.2758575686    
CA         3.161808885         2.129802126        -1.596416869    
HA         3.235300866         2.812669637       -0.7482881807    
CB         4.522599495         1.419301791        -1.695620178    
HB         5.318087104         2.157223968        -1.806048443    
HB         4.706568384        0.8409455993       -0.7892435011    
HB         4.535370261        0.7508928874        -2.557202156    
C          2.812547125         3.040532268        -2.804892750    
O          3.697622160         3.470423809        -3.554647237    
N          1.519375740         3.338485945        -3.002850485    
H         0.8527148308         2.955177323        -2.346928079    
CH         1.004036555         4.168353456        -4.092998706    
HH       -0.8190926419E-01     4.253282116        -4.018935664    
HH         1.439938988         5.168326867        -4.042323222    
HH         1.257276398         3.720896684        -5.056412585    
    52
Energy=    -35.6025171972170    
HH        -6.319778436       -0.3267528099       -0.6787693384E-01
CH        -5.777351120        -1.159121830        0.3789152956    
HH        -6.460465366        -1.760258024        0.9777328266    
HH        -5.344482763        -1.776506428       -0.4072570862    
C         -4.671202046       -0.6300478066         1.264171801    
O         -4.502358835        0.5839765684         1.380152894    
N         -3.920364394        -1.543051384         1.879191360    
H         -4.130468176        -2.514099673         1.700121879    
CA        -2.790422778        -1.255984770         2.770999499    
HA        -2.719928468       -0.1774144724         2.923150870    
CB        -3.074419427        -1.891735402         4.139091897    
HB        -3.142610949        -2.976367655         4.041038504    
HB        -2.270947312        -1.647456101         4.835413269    
HB        -4.014091797        -1.507064598         4.538323965    
C         -1.440521906        -1.719813101         2.181336990    
O         -1.388740120        -2.642434610         1.360692679    
N        -0.3447828925        -1.083114881         2.618650049    
H        -0.4763344508       -0.3589377017         3.312144945    
CA         1.040284454        -1.352504085         2.196959681    
HA         1.639827665       -0.5280026789         2.586728661    
CB         1.545025898        -2.623609980         2.901273522    
HB         1.014979511        -3.498580273         2.523278102    
HB         1.382039070        -2.541668772         3.976729223    
HB         2.613137278        -2.748649062         2.719105476    
C          1.275224942        -1.322142163        0.6629278707    
O          2.140295746        -2.029621452        0.1359444849    
N         0.5039433061       -0.5018192250       -0.6353398669E-01
H        -0.1868528862        0.4911456878E-01    0.4259699553    
CA        0.5168458088       -0.4295055836        -1.530463670    
HA        0.5892887281        -1.445134913        -1.923874905    
CB       -0.8318514059        0.1493959514        -1.979368519    
HB       -0.9433325637         1.171506823        -1.613806813    
HB       -0.8854856519        0.1540501837        -3.069006462    
HB        -1.646955534       -0.4640747542        -1.592051974    
C          1.704161283        0.3683463762        -2.120685783    
O          1.996485030        0.2381363647        -3.313236942    
N          2.387259080         1.182993300        -1.301748333    
H          2.083094510         1.224039565       -0.3396365036    
CA         3.547714136         2.011543256        -1.667888134    
HA         3.719521217         2.678643876       -0.8214351527    
CB         4.794936684         1.116944804        -1.770398305    
HB         5.685711592         1.735721512        -1.885094685    
HB         4.899255150        0.5198518204       -0.8635043124    
HB         4.710492654        0.4520400253        -2.630645885    
C          3.325309958         2.960459846        -2.876971539    
O          4.258929479         3.259790489        -3.631337997    
N          2.086354158         3.437780716        -3.070306933    
H          1.375116362         3.153563341        -2.410782525    
CH         1.688723797         4.330437330        -4.160166274    
HH        0.6260113916         4.568120412        -4.081878170    
HH         2.261781891         5.258850820        -4.113455464    
HH         1.871998799         3.850166039        -5.123632412    
    52
Energy=    -35.9281441273838    
HH        -6.889143516       -0.6502160137        0.5752075714    
CH        -6.056182143        -1.347613456        0.6558174126    
HH        -6.418109337        -2.307245593         1.022832648    
HH        -5.597594597        -1.482991578       -0.3229364164    
C         -5.025756701       -0.8016141096         1.618877453    
O         -5.210325266        0.2841021531         2.169627719    
N         -3.944850955        -1.555235295         1.816199253    
H         -3.882639112        -2.425158941         1.306516101    
CA        -2.819881490        -1.214120184         2.694922406    
HA        -2.774627348       -0.1294513629         2.811162864    
CB        -3.073499626        -1.833445637         4.077816580    
HB        -3.119323798        -2.920758989         3.998047909    
HB        -2.268152506        -1.560161477         4.760992438    
HB        -4.016442277        -1.463543433         4.482974162    
C         -1.464247082        -1.671109947         2.112227984    
O         -1.405537316        -2.590392879         1.288354062    
N        -0.3730496796        -1.032862267         2.558374717    
H        -0.5117385237       -0.3090920723         3.250940027    
CA         1.017170781        -1.308302397         2.157999795    
HA         1.613064132       -0.4827689378         2.551170421    
CB         1.508095669        -2.575825844         2.878373526    
HB        0.9810174165        -3.451897709         2.498728376    
HB         1.329748836        -2.486003649         3.950762601    
HB         2.578386238        -2.705067345         2.712649912    
C          1.275749523        -1.288878920        0.6277036766    
O          2.142366866        -2.007115376        0.1180533648    
N         0.5239043362       -0.4652481971       -0.1151227088    
H        -0.1699216459        0.9431698537E-01    0.3601397914    
CA        0.5655255752       -0.3975759486        -1.581864851    
HA        0.6314792278        -1.415287033        -1.971007104    
CB       -0.7659096264        0.1987225408        -2.058425097    
HB       -0.8703197295         1.223242586        -1.697531953    
HB       -0.7980872808        0.2012917734        -3.148925067    
HB        -1.596781345       -0.4025607625        -1.685855125    
C          1.774590058        0.3823995093        -2.151467378    
O          2.090692546        0.2411037785        -3.336667765    
N          2.449706330         1.194144769        -1.323081965    
H          2.125361874         1.245169114       -0.3680648890    
CA         3.627655375         2.006416122        -1.669271802    
HA         3.789296260         2.676869004       -0.8234654063    
CB         4.865900120         1.096353492        -1.739352861    
HB         5.766335951         1.703700527        -1.838673793    
HB         4.943516126        0.5039223312       -0.8267408561    
HB         4.791912750        0.4269625722        -2.597080430    
C          3.442701007         2.950091380        -2.888719008    
O          4.395814105         3.233348645        -3.624688725    
N          2.214034301         3.440935371        -3.111600873    
H          1.485449313         3.169508672        -2.465764012    
CH         1.850668551         4.331231304        -4.215267063    
HH        0.7894754119         4.582107400        -4.161320213    
HH         2.433780996         5.253008156        -4.161999941    
HH         2.048721523         3.842596966        -5.171577467    
