    52
Energy=    -38.4667231886665    
HH        -5.900744358        0.9392939202        0.3155738724    
CH        -5.170028617         1.369221988        0.9995172490    
HH        -5.684239521         1.813772102         1.850768377    
HH        -4.593801470         2.134495381        0.4809793163    
C         -4.235612331        0.2816003636         1.480065040    
O         -4.150014545        0.2513175209E-01     2.681440781    
N         -3.537220782       -0.3576412557        0.5426473407    
H         -3.668620241       -0.7570399901E-01   -0.4173105252    
CA        -2.565690037        -1.420777766        0.8174031612    
HA        -3.014408497        -2.118662530         1.527330666    
CB        -2.300214838        -2.187182425       -0.4864414827    
HB        -1.628633410        -3.025310400       -0.2944529467    
HB        -1.842285054        -1.525837292        -1.224125488    
HB        -3.238354293        -2.576387094       -0.8853399216    
C         -1.257736796       -0.8925244486         1.447734355    
O        -0.8666841649        0.2618513172         1.243138765    
N        -0.5379618620        -1.761891545         2.167590637    
H        -0.9034585467        -2.696899420         2.287352592    
CA        0.7047704743        -1.423687550         2.877139975    
HA        0.5014676720       -0.5780747521         3.536840946    
CB         1.087794336        -2.625218898         3.751091906    
HB         1.300290782        -3.493145092         3.124595132    
HB        0.2716059389        -2.863440367         4.434841042    
HB         1.975749951        -2.384487438         4.337486585    
C          1.871902129        -1.006927159         1.950214010    
O          2.800346240       -0.3235656611         2.391609557    
N          1.814632495        -1.372317020        0.6627378809    
H          1.052430111        -1.970907036        0.3788825350    
CA         2.774522825       -0.9586927549       -0.3671550875    
HA         3.780272155        -1.022225802        0.5224494872E-01
CB         2.682090259        -1.966185870        -1.521368996    
HB         3.432172023        -1.729856914        -2.277467264    
HB         1.691919631        -1.925150509        -1.978237325    
HB         2.867417664        -2.975152989        -1.149691642    
C          2.581146357        0.4967214907       -0.8624178199    
O          3.440672171         1.016056605        -1.580829050    
N          1.470880223         1.154778712       -0.4919876193    
H         0.8212254315        0.6693716145        0.1148750198    
CA         1.108019423         2.530808891       -0.8644938011    
HA        0.7083338433E-01     2.659979337       -0.5504562640    
CB         1.936516195         3.518922513       -0.2576243265E-01
HB         1.566179577         4.533524571       -0.1771000492    
HB         1.850188401         3.270383526         1.032855535    
HB         2.985360705         3.475358790       -0.3211416849    
C          1.095837273         2.819142906        -2.390126272    
O          1.374566985         3.942033315        -2.827843048    
N         0.7748438602         1.806256997        -3.209531639    
H         0.5542003337        0.9182946760        -2.780464341    
CH        0.7236293029         1.889355665        -4.670004922    
HH         1.704230245         2.164216337        -5.064191808    
HH       -0.4757669849E-02     2.642387455        -4.978084879    
HH        0.4327527790        0.9248935627        -5.090930915    
    52
Energy=    -33.5198416256859    
HH        -6.087530306        0.5754927653        0.7042717277    
CH        -5.296205904         1.147075268         1.187647481    
HH        -5.721164251         1.758888951         1.982473599    
HH        -4.811163438         1.788634181        0.4530083228    
C         -4.275538078        0.1942807091         1.768566538    
O         -4.040199664        0.2008060203         2.977293662    
N         -3.671641271       -0.6249163764        0.9087434744    
H         -3.923807231       -0.5545388649       -0.6578177011E-01
CA        -2.637503989        -1.595685761         1.279891462    
HA        -2.971762819        -2.126112719         2.173924732    
CB        -2.506465764        -2.625218619        0.1482372452    
HB        -1.788048762        -3.396687089        0.4293309400    
HB        -2.164602950        -2.136589524       -0.7658775436    
HB        -3.472205460        -3.098502860       -0.3619653998E-01
C         -1.281792384       -0.9330582045         1.612124348    
O        -0.9608184855        0.1548984857         1.122439179    
N        -0.4481972335        -1.621857682         2.401093851    
H        -0.7614370995        -2.514293530         2.758239766    
CA        0.8563106867        -1.126625435         2.865271006    
HA        0.7011838158       -0.1582345048         3.344606377    
CB         1.376236163        -2.102920535         3.928761043    
HB         1.546730234        -3.085389993         3.485352263    
HB        0.6506778256        -2.192246021         4.738708057    
HB         2.315557342        -1.731370613         4.340918854    
C          1.896963296       -0.9125711365         1.739247141    
O          2.878962714       -0.1899679996         1.932346314    
N          1.676026853        -1.499092555        0.5554585886    
H         0.8765289833        -2.110826026        0.4780618317    
CA         2.513504781        -1.324309350       -0.6366743631    
HA         3.560021513        -1.382079896       -0.3317574306    
CB         2.233485960        -2.504910096        -1.577029414    
HB         2.894093740        -2.450723068        -2.443458497    
HB         1.197286068        -2.475768352        -1.918040684    
HB         2.417176478        -3.446424619        -1.057142627    
C          2.327886241        0.3734967443E-01    -1.355077953    
O          3.108568833        0.3448384690        -2.259383845    
N          1.307002420        0.8210357050       -0.9655167065    
H         0.7225922368        0.4422055669       -0.2317999626    
CA        0.9323469740         2.177196031        -1.406978694    
HA       -0.6968352343E-01     2.113797763        -1.835265118    
CB        0.8270941922         3.055316021       -0.1498286436    
HB        0.5125608564         4.061620449       -0.4298160208    
HB        0.8996514825E-01     2.638678420        0.5371371829    
HB         1.793590978         3.110065478        0.3536019298    
C          1.841315101         2.838729524        -2.475884709    
O          2.894719415         3.408903635        -2.161946479    
N          1.408087390         2.795251920        -3.744142936    
H         0.5365270330         2.314823755        -3.924400846    
CH         2.113494480         3.374188878        -4.888621769    
HH         3.101505378         2.919798678        -4.988365168    
HH         2.232045107         4.451043756        -4.751323664    
HH         1.549720675         3.196001130        -5.806445534    
    52
Energy=    -39.7045784537019    
HH        -5.803944891         1.043561871        0.9149512323    
CH        -4.937340909         1.599158694         1.271103317    
HH        -5.254289386         2.338374211         2.005771024    
HH        -4.457898207         2.101238404        0.4316560957    
C         -3.955018969        0.6397636869         1.904833788    
O         -3.633532320        0.7731742286         3.086070351    
N         -3.480460556       -0.3268979610         1.120453461    
H         -3.797668109       -0.3548774440        0.1630035815    
CA        -2.495242732        -1.326591190         1.544416910    
HA        -2.800075692        -1.717799197         2.517220752    
CB        -2.522007162        -2.489885887        0.5424271119    
HB        -1.843869049        -3.278958453        0.8706840020    
HB        -2.212174434        -2.142027112       -0.4446596399    
HB        -3.530639130        -2.901332653        0.4787848430    
C         -1.074462981       -0.7402996346         1.702869030    
O        -0.7231391856        0.2686167155         1.083360555    
N        -0.2232888349        -1.410903288         2.488193310    
H        -0.5613348797        -2.237018262         2.962843189    
CA         1.152602204       -0.9768956614         2.771641827    
HA         1.116213745        0.4441052283E-01     3.155254344    
CB         1.710292649        -1.879901750         3.879669788    
HB         1.763986773        -2.912661765         3.531201541    
HB         1.068642706        -1.827850332         4.760562529    
HB         2.711352201        -1.545932819         4.156363567    
C          2.082021924       -0.9648269980         1.533412200    
O          3.108579734       -0.2790341650         1.536398949    
N          1.719909076        -1.690607831        0.4673856261    
H         0.8906535354        -2.260481805        0.5495421264    
CA         2.446042632        -1.731147947       -0.8065593256    
HA         3.516191058        -1.684852887       -0.5969078090    
CB         2.159039114        -3.089011800        -1.462180834    
HB         2.743174961        -3.186514759        -2.378306945    
HB         1.098709387        -3.171313740        -1.706537788    
HB         2.437714741        -3.896241448       -0.7830891722    
C          2.124371830       -0.5534328802        -1.760557664    
O          2.794955076       -0.3967729609        -2.786729442    
N          1.113548066        0.2712398362        -1.453856828    
H         0.6120187270        0.1189206922       -0.5886551145    
CA        0.7050320263         1.414175146        -2.277911516    
HA        0.6990050201         1.094949599        -3.322158054    
CB       -0.7340941797         1.800174885        -1.909273828    
HB        -1.090046267         2.582672322        -2.580649005    
HB        -1.388794824        0.9324784024        -2.003008039    
HB       -0.7704798819         2.171638175       -0.8843620069    
C          1.671929170         2.616902876        -2.168542533    
O          2.377268563         2.786434996        -1.165962251    
N          1.684694956         3.474126798        -3.198854145    
H          1.071675310         3.275641035        -3.978718549    
CH         2.517456972         4.675513574        -3.277821994    
HH         3.573751574         4.404765990        -3.218451435    
HH         2.279433714         5.352082704        -2.454305712    
HH         2.339535437         5.194057066        -4.222015418    
