    52
Energy=    -38.3818569205175    
HH        -6.542069092        0.9922564264        0.7574510030    
CH        -5.473029710         1.123476977        0.5942730312    
HH        -5.098131853         1.910438446         1.247509661    
HH        -5.293608842         1.397912756       -0.4445097051    
C         -4.748362298       -0.1680049120        0.9014035241    
O         -5.380619656        -1.156532576         1.274634422    
N         -3.425300213       -0.1539337277        0.7441748694    
H         -2.999229796        0.7131014320        0.4489034750    
CA        -2.528112226        -1.287407113        0.9976268571    
HA        -2.987512620        -1.949934777         1.733881759    
CB        -2.349332204        -2.071038441       -0.3123881337    
HB        -1.719986687        -2.945547006       -0.1411999047    
HB        -1.882272979        -1.436929176        -1.067935110    
HB        -3.320448236        -2.407408377       -0.6785672869    
C         -1.167750370       -0.8350684767         1.569396319    
O        -0.7450662007        0.3099948668         1.377538136    
N        -0.4483082883        -1.751410552         2.228309616    
H        -0.8439691542        -2.675184528         2.340184835    
CA        0.8396339471        -1.481670732         2.884886062    
HA        0.7018048906       -0.6487235822         3.576864221    
CB         1.216074183        -2.722151490         3.705641690    
HB         1.363872177        -3.578702436         3.045779614    
HB        0.4246224861        -2.949067887         4.421552606    
HB         2.139815968        -2.532951086         4.254440760    
C          1.976958412        -1.082456124         1.914277201    
O          2.953267116       -0.4514901416         2.329662416    
N          1.842638281        -1.403450128        0.6207533487    
H          1.043704839        -1.961886203        0.3567864174    
CA         2.768301673       -0.9952307133       -0.4420760386    
HA         3.789586110        -1.117970750       -0.7686808262E-01
CB         2.572987856        -1.955034104        -1.623765111    
HB         3.294589031        -1.724306787        -2.408759270    
HB         1.564253993        -1.854173898        -2.027663161    
HB         2.730470352        -2.983993986        -1.296744912    
C          2.617117254        0.4842292429       -0.8770282934    
O          3.464848541        0.9921382080        -1.617292548    
N          1.555680185         1.175397041       -0.4311882163    
H         0.9137480206        0.6962609875        0.1886696311    
CA         1.239082619         2.579080252       -0.7369020773    
HA        0.2243159078         2.741775702       -0.3697351386    
CB         2.149216847         3.497551558        0.9635315952E-01
HB         1.818990323         4.532416031       -0.9949567171E-03
HB         2.100144364         3.213240689         1.148330904    
HB         3.180387588         3.419192104       -0.2497198578    
C          1.170468753         2.925004795        -2.249032719    
O          1.479501167         4.050401007        -2.659090766    
N         0.7668495526         1.958714844        -3.087942897    
H         0.5261832403         1.065592286        -2.680889935    
CH        0.6527618863         2.099025909        -4.540464547    
HH        0.2994456018         1.164766513        -4.981262802    
HH         1.625788787         2.345439399        -4.970590189    
HH       -0.5400122818E-01     2.894252037        -4.786673878    
    52
Energy=    -37.9232545566751    
HH        -6.316187156         1.259707761         1.405623453    
CH        -5.414548316         1.173292016        0.8004201583    
HH        -4.807377685         2.069711410        0.9202929045    
HH        -5.688366603         1.057830237       -0.2475644878    
C         -4.616948835       -0.3284487135E-01     1.243587525    
O         -5.026368488       -0.7370313611         2.166934051    
N         -3.480717870       -0.2623051228        0.5863351876    
H         -3.226871340        0.3884767381       -0.1422731367    
CA        -2.550645476        -1.365524916        0.8553400149    
HA        -3.005559981        -2.051300463         1.572430610    
CB        -2.333116629        -2.145317972       -0.4496179447    
HB        -1.691969090        -3.008531082       -0.2651267499    
HB        -1.861570627        -1.503857154        -1.196106111    
HB        -3.291643905        -2.497851175       -0.8337214543    
C         -1.220512302       -0.8819713558         1.471404631    
O        -0.8131897155        0.2705723284         1.291126292    
N        -0.5050787044        -1.782907063         2.155694389    
H        -0.8857628318        -2.714203648         2.256173646    
CA        0.7540184723        -1.486609991         2.855267795    
HA        0.5760237925       -0.6555885997         3.540351899    
CB         1.126737497        -2.718110748         3.691127466    
HB         1.314104101        -3.572519383         3.038576426    
HB        0.3159011713        -2.959732617         4.380027456    
HB         2.027177268        -2.509675619         4.270815592    
C          1.915775356        -1.066185677         1.923329460    
O          2.865091989       -0.4163048998         2.370888010    
N          1.831862878        -1.390561034        0.6263956325    
H          1.053105517        -1.964176342        0.3359698647    
CA         2.785535095       -0.9653690284       -0.4045450189    
HA         3.795911639        -1.069987732       -0.4967806292E-02
CB         2.647500419        -1.927839675        -1.592116327    
HB         3.390864999        -1.683639021        -2.352338718    
HB         1.651296418        -1.844967900        -2.029791448    
HB         2.812431197        -2.953981939        -1.259952904    
C          2.622564408        0.5113164547       -0.8445516382    
O          3.487471507         1.035921774        -1.552594774    
N          1.532370111         1.181745919       -0.4382336394    
H         0.8770291353        0.6897496149        0.1570393860    
CA         1.201039646         2.579752952       -0.7541663659    
HA        0.1702808232         2.722589717       -0.4252610600    
CB         2.061682259         3.513651082        0.1138085729    
HB         1.715859136         4.542293198        0.5309359662E-02
HB         1.978478592         3.226513355         1.162868986    
HB         3.106430199         3.455361898       -0.1933200628    
C          1.182814320         2.927305503        -2.267385529    
O          1.484528527         4.059506467        -2.663942443    
N         0.8306769690         1.954953573        -3.122333001    
H         0.5928920362         1.056280784        -2.725956034    
CH        0.7689366193         2.096082517        -4.577945840    
HH        0.4514112345         1.155896982        -5.033143329    
HH         1.752428924         2.362836868        -4.970495693    
HH        0.5620359841E-01     2.877547040        -4.849687251    
    52
Energy=    -38.4667231886657    
HH        -5.730917715         1.710815122         1.804270045    
CH        -5.197583329         1.299827028        0.9479352055    
HH        -4.617133163         2.086577044        0.4676595606    
HH        -5.912183818        0.8895351210        0.2354965236    
C         -4.264686611        0.2020135399         1.407815644    
O         -4.199953571       -0.9602381077E-01     2.600874810    
N         -3.544197437       -0.3993207966        0.4620752418    
H         -3.659460102       -0.8462366737E-01   -0.4897407958    
CA        -2.570484429        -1.465182331        0.7178957854    
HA        -3.027543288        -2.190500979         1.394208230    
CB        -2.275003668        -2.183492863       -0.6067117522    
HB        -1.601218266        -3.023511085       -0.4314338809    
HB        -1.807951340        -1.493654177        -1.311863844    
HB        -3.202654861        -2.564457476        -1.036868823    
C         -1.278451711       -0.9510190399         1.391244297    
O        -0.8918317604        0.2123402174         1.234766898    
N        -0.5662220535        -1.840524895         2.093794229    
H        -0.9272512503        -2.781506069         2.173686828    
CA        0.6604604129        -1.519498116         2.838386588    
HA        0.4387321137       -0.6989572096         3.523330087    
CB         1.035462840        -2.748550631         3.676825568    
HB         1.265915173        -3.592500005         3.024452970    
HB        0.2082318493        -3.015948353         4.336077565    
HB         1.910458428        -2.522886957         4.288163567    
C          1.841882006        -1.062853883         1.949119296    
O          2.756944843       -0.3894791844         2.431869697    
N          1.811521021        -1.383063697        0.6487623340    
H          1.059089838        -1.976194222        0.3295761243    
CA         2.787708912       -0.9272656588       -0.3474602032    
HA         3.785790886       -0.9990346064        0.8859729327E-01
CB         2.724246099        -1.894084534        -1.537850739    
HB         3.486762733        -1.626457940        -2.270723857    
HB         1.742606877        -1.843379560        -2.011837958    
HB         2.909700788        -2.914292497        -1.198311019    
C          2.593362295        0.5434014624       -0.7949843444    
O          3.462575776         1.093232326        -1.478184328    
N          1.471648818         1.180840087       -0.4229902562    
H         0.8141273613        0.6701949363        0.1539505782    
CA         1.106100701         2.566760565       -0.7538782536    
HA        0.6228004187E-01     2.678107287       -0.4553823668    
CB         1.911569623         3.530062279        0.1346685109    
HB         1.536945054         4.546953355        0.1195507256E-01
HB         1.807049687         3.243865185         1.182076226    
HB         2.966085135         3.503685912       -0.1419590876    
C          1.120661038         2.908529713        -2.268414880    
O          1.399604289         4.047904867        -2.661077612    
N         0.8224042690         1.923063595        -3.128821308    
H         0.6000270055         1.019145047        -2.735452521    
CH        0.7981705483         2.057183831        -4.586193949    
HH        0.5221608461         1.106278983        -5.046165254    
HH         1.784054878         2.352067224        -4.951687827    
HH        0.7038649120E-01     2.815879318        -4.881539919    
