    52
Energy=    -38.4667231886669    
HH        -4.086970673         3.298360798         2.866728610    
CH        -3.028318936         3.269217366         3.121619462    
HH        -2.455358182         3.785308918         2.352250787    
HH        -2.870756781         3.756994487         4.082823804    
C         -2.573211865         1.829202296         3.200454148    
O         -2.106993171         1.383821090         4.249588320    
N         -2.709572058         1.102271956         2.092252581    
H         -3.097307209         1.553669740         1.277283236    
CA        -2.302279600       -0.3008112385         1.969401563    
HA        -2.663131328       -0.8395995740         2.847969503    
CB        -2.992386435       -0.9024157181        0.7366450452    
HB        -2.755999602        -1.964774735        0.6601316692    
HB        -4.074221498       -0.7915055635        0.8262982912    
HB        -2.652446352       -0.3960024678       -0.1684743526    
C        -0.7687012123       -0.4793941319         1.911469545    
O        -0.3369762116E-01    0.4156983523         1.480257193    
N        -0.2828134451        -1.669228878         2.286001942    
H        -0.9361222708        -2.366622947         2.616152769    
CA         1.148552221        -2.001641609         2.340038583    
HA         1.647673484        -1.259202300         2.965546575    
CB         1.287284045        -3.368035182         3.024069950    
HB        0.7996278254        -4.139277392         2.425466829    
HB        0.8312609222        -3.336401699         4.014760660    
HB         2.343537847        -3.618273880         3.133541511    
C          1.856313723        -1.986546389        0.9638398158    
O          3.079878552        -1.837095113        0.8976971319    
N          1.098230070        -2.095467655       -0.1351732285    
H         0.1105270434        -2.263480997       -0.8482291301E-02
CA         1.597611836        -1.979688784        -1.510079441    
HA         2.539451893        -2.526583150        -1.582938315    
CB        0.5824232740        -2.666885606        -2.433631603    
HB       -0.3732071801        -2.141079855        -2.399731946    
HB        0.9547004845        -2.661279080        -3.459076316    
HB        0.4369628991        -3.702093994        -2.121077897    
C          1.883061348       -0.5239692417        -1.957638875    
O          2.483738546       -0.3178545132        -3.016559033    
N          1.461643484        0.4797288079        -1.171543498    
H         0.9934958713        0.2314517101       -0.3083228120    
CA         1.630840770         1.918190320        -1.428620612    
HA         1.006913635         2.427121263       -0.6918956438    
CB         3.081485918         2.322629182        -1.115086575    
HB         3.178096158         3.408452702        -1.148603119    
HB         3.355035205         1.978769567       -0.1166741031    
HB         3.760735565         1.882374808        -1.845851592    
C          1.098033823         2.409422441        -2.801809269    
O          1.631054728         3.359067286        -3.388522556    
N         0.4373161303E-01     1.764344333        -3.324036114    
H        -0.3425208842         1.001050498        -2.786029680    
CH       -0.5834714321         2.079169509        -4.608564029    
HH       -0.9520876679         3.107092023        -4.604678848    
HH        -1.422240167         1.404807508        -4.792079394    
HH        0.1419130846         1.966994533        -5.417108382    
    52
Energy=    -32.6652660363416    
HH        -3.595522852         3.617176755         2.631584333    
CH        -2.531463401         3.509199247         2.424993972    
HH        -2.356671983         3.616385679         1.355173905    
HH        -1.975356355         4.275186927         2.964135185    
C         -2.073009694         2.138568181         2.870207001    
O         -1.191426746         2.027536452         3.722760682    
N         -2.671000157         1.096904300         2.293710655    
H         -3.378868934         1.284126670         1.599501394    
CA        -2.332348272       -0.3040015443         2.564576816    
HA        -2.258925512       -0.4334331403         3.646315860    
CB        -3.484302198        -1.188601788         2.067025487    
HB        -3.282916608        -2.232435341         2.312097633    
HB        -4.416639440       -0.8897489234         2.548613286    
HB        -3.590168443        -1.091991268        0.9851733011    
C        -0.9765642059       -0.7247444118         1.951476793    
O        -0.5225179320       -0.1303915203        0.9716362887    
N        -0.3635750290        -1.765787795         2.532526974    
H        -0.8480448202        -2.159309077         3.326903289    
CA        0.9043077696        -2.439963617         2.192449860    
HA         1.550411840        -2.347652973         3.067314499    
CB        0.6075668505        -3.938546906         2.022920065    
HB       -0.9193311571E-01    -4.099014355         1.201121457    
HB        0.1721471314        -4.336244073         2.940856781    
HB         1.533943987        -4.476622851         1.815558127    
C          1.733538028        -1.888372343         1.004016079    
O          2.806757445        -1.314793742         1.213567851    
N          1.268271236        -2.080048354       -0.2379826776    
H         0.3751533409        -2.540686811       -0.3374019701    
CA         2.007936067        -1.757870551        -1.466062540    
HA         3.033513644        -2.112059078        -1.346878190    
CB         1.369792033        -2.553390930        -2.613094328    
HB        0.3420532031        -2.223108945        -2.772541782    
HB         1.939227180        -2.398108582        -3.530567657    
HB         1.374886732        -3.618295783        -2.375503515    
C          2.093606411       -0.2487187528        -1.803965394    
O          2.878571865        0.1382321939        -2.675447497    
N          1.303226082        0.5997498934        -1.132570045    
H         0.7006202616        0.2005438332       -0.4206014350    
CA         1.231794966         2.057799337        -1.307925102    
HA        0.3562950198         2.381492998       -0.7425708610    
CB         2.447455494         2.711196759       -0.6286873802    
HB         2.325036014         3.794818096       -0.6145248507    
HB         2.533136290         2.356218002        0.3992175507    
HB         3.359753894         2.463082309        -1.172169844    
C         0.9607802849         2.533339106        -2.760816524    
O          1.417049793         3.605902184        -3.175201926    
N         0.2180060126         1.736980189        -3.544638576    
H        -0.1250139475        0.8786222510        -3.135769128    
CH       -0.1282105450         2.014540252        -4.939425866    
HH       -0.6869152113         2.950251117        -5.008721564    
HH       -0.7427194176         1.206643879        -5.341477037    
HH        0.7792762429         2.099446646        -5.540889439    
    52
Energy=    -36.6039294733356    
HH        -2.660108938         3.911972798         2.336039318    
CH        -1.765475892         3.534042046         1.842679677    
HH        -1.968738409         3.394386050        0.7818176009    
HH       -0.9511250554         4.246873003         1.967104904    
C         -1.379700990         2.208010628         2.458903746    
O        -0.2948662211         2.081396255         3.026284924    
N         -2.266247546         1.220212243         2.346591672    
H         -3.129500264         1.411647828         1.860262441    
CA        -2.047101829       -0.1424435096         2.841102684    
HA        -1.598185033       -0.7807450592E-01     3.834385918    
CB        -3.408164191       -0.8354156473         2.991674614    
HB        -3.270296470        -1.832886197         3.411478771    
HB        -4.046792934       -0.2578640323         3.661737626    
HB        -3.893041460       -0.9238626026         2.018065118    
C         -1.084042447       -0.9519812439         1.944596168    
O         -1.010053471       -0.7299505030        0.7311874858    
N        -0.3706782431        -1.915503752         2.541317702    
H        -0.5012263340        -2.039905201         3.535476750    
CA        0.6021544593        -2.801014201         1.886450716    
HA         1.201969888        -3.250290204         2.679946770    
CB       -0.1429547734        -3.967006405         1.211660120    
HB       -0.8044492879        -3.596613902        0.4270495164    
HB       -0.7420923159        -4.496504918         1.953924745    
HB        0.5751819019        -4.667270891        0.7820125257    
C          1.621089045        -2.046568794        0.9948840137    
O          2.485889783        -1.334823135         1.514563589    
N          1.526430717        -2.180722021       -0.3344274150    
H         0.7943967448        -2.775323586       -0.6958986347    
CA         2.417434667        -1.535218488        -1.306944677    
HA         3.439468940        -1.596003770       -0.9284701237    
CB         2.352472104        -2.347325818        -2.607885415    
HB         1.347108271        -2.301450404        -3.029620540    
HB         3.060231715        -1.941037579        -3.331846633    
HB         2.614601355        -3.387862151        -2.410231042    
C          2.119512483       -0.3497462529E-01    -1.554078867    
O          2.907891588        0.6425565911        -2.220744923    
N         0.9995628313        0.4870177941        -1.032068356    
H         0.4102668287       -0.1315140852       -0.4856311379    
CA        0.5397491438         1.877751946        -1.163810149    
HA       -0.4778408705         1.890920038       -0.7703259827    
CB         1.372121456         2.779536554       -0.2365026646    
HB        0.9276833645         3.774400829       -0.1916018790    
HB         1.393203332         2.359868642        0.7696066238    
HB         2.392861260         2.862732957       -0.6109308098    
C         0.4053189297         2.392031186        -2.622519924    
O         0.5760274696         3.586732927        -2.893629217    
N         0.9961333926E-01     1.493941236        -3.571296008    
H        -0.3179739286E-01    0.5366794055        -3.274749426    
CH       -0.5491169537E-01     1.794095043        -4.995535351    
HH       -0.8523042542         2.525918982        -5.140847815    
HH       -0.3064239527        0.8851287826        -5.545534018    
HH        0.8758789543         2.201558206        -5.395674732    
