    45
 Energy=    -70.1327397474736
HH           -2.9282010550       -6.1304164900       -0.7903481085
CH           -2.0294105780       -5.6837203840       -0.3658342567
HH           -1.3654470750       -6.4721508900       -0.0127047715
HH           -1.5186082440       -5.1001063860       -1.1311016940
C            -2.4004748540       -4.7804397340        0.7950847526
O            -3.5758664260       -4.6300366440        1.1255119480
N            -1.4005213610       -4.1533416130        1.4112131420
H            -0.4560700475       -4.2949438830        1.0756612650
CA           -1.5656833190       -3.2703540780        2.5819618840
HA           -2.1776300010       -3.7868655760        3.3233164290
CB           -0.1926332198       -3.0087106280        3.2242403870
HB            0.1962167964       -3.9530456110        3.6105237990
HB           -0.3134630405       -2.3214724200        4.0640623170
OG            0.7400421682       -2.4681462860        2.2888452190
HG            1.6000715960       -2.3231992070        2.7417008280
C            -2.2862071140       -1.9393745960        2.2763044460
O            -2.7457741720       -1.2536036000        3.1947897340
N            -2.4497232530       -1.5897045200        0.9925352569
H            -2.0242244400       -2.1829349840        0.2930595451
CA           -3.2242938920       -0.4265295485        0.5274839169
HA           -3.0989714050        0.3893718658        1.2416184990
CB           -2.6602337120        0.0388689330       -0.8305357099
HB           -3.2733979370        0.8624567622       -1.2012344710
HB           -2.7217173630       -0.7811099465       -1.5489290720
CG           -1.2050294400        0.5282874524       -0.7330089796
HG           -0.5608745331       -0.2905906498       -0.4095492484
HG           -1.1463010480        1.3335672760        0.0010337092
CD           -0.7070025704        1.0453383590       -2.0892100950
HD           -0.7664601210        0.2404451464       -2.8247448380
HD           -1.3414002600        1.8724417350       -2.4145307570
CE            0.7456438440        1.5268760880       -1.9673659910
HE            0.7932164239        2.3161114160       -1.2107991630
HE            1.3653748190        0.6940818833       -1.6210351250
NZ            1.2689059600        2.0392073510       -3.2623117070
HZ            0.7221899498        2.8221870350       -3.5938738320
HZ            1.2516015730        1.3214107070       -3.9738807350
HZ            2.2255479920        2.3524075520       -3.1660887030
C            -4.7480099680       -0.6905654746        0.4466336351
O            -5.5235691250        0.2434448247        0.2143398194
N            -5.1888156660       -1.9411753420        0.6408620758
H            -4.4942693350       -2.6527547510        0.8310412875
CH           -6.5885049720       -2.3548603790        0.6008571059
HH           -6.6609467410       -3.4273879060        0.7878936031
HH           -7.0145792080       -2.1366685420       -0.3799699417
HH           -7.1572122190       -1.8225857160        1.3653229960
    45
 Energy=    -65.5588722626868
HH           -1.5653047250       -7.1020970670        4.2045590030
CH           -2.1698394160       -6.3074853420        3.7678905950
HH           -2.9252839330       -6.7450922370        3.1159227300
HH           -2.6618145330       -5.7488705060        4.5636018890
C            -1.2884019780       -5.3700129540        2.9615989600
O            -0.0758533795       -5.5650975880        2.8815554130
N            -1.8943669440       -4.3419445970        2.3706205730
H            -2.8938193950       -4.2516415040        2.4905583850
CA           -1.2292890040       -3.3594449620        1.4944388360
HA           -0.2839267439       -3.0704321230        1.9568811510
CB           -0.8676052683       -3.9994244660        0.1324567048
HB           -0.1973477227       -4.8427576330        0.3071325371
HB           -0.3264896582       -3.2676698010       -0.4710514774
OG           -2.0124051400       -4.4581260980       -0.5887130763
HG           -1.7146495830       -4.9774188920       -1.3680803090
C            -2.0512840460       -2.0519448410        1.3863590270
O            -2.2455917240       -1.3663501050        2.3949508170
N            -2.5445825440       -1.6931740610        0.1919959869
H            -2.3518687760       -2.3145335400       -0.5857644004
CA           -3.3114061530       -0.4643217080       -0.0953142876
HA           -3.4821172280        0.0830052634        0.8331104081
CB           -2.4738883350        0.4363060265       -1.0288225320
HB           -3.0618899250        1.3190407280       -1.2866842360
HB           -2.2523310640       -0.1058134380       -1.9502672520
CG           -1.1586611370        0.9098694164       -0.3865973888
HG           -0.5209592280        0.0503543770       -0.1757610141
HG           -1.3814787900        1.4227959110        0.5503810179
CD           -0.4054951887        1.8681310690       -1.3190029530
HD           -0.1828750633        1.3558560830       -2.2573225640
HD           -1.0343994110        2.7360147240       -1.5279682360
CE            0.9023071449        2.3268541500       -0.6584300540
HE            0.6649524362        2.8164182190        0.2910999702
HE            1.5136710620        1.4466153660       -0.4370965703
NZ            1.6635356790        3.2619908060       -1.5298320550
HZ            1.1249889600        4.0928963620       -1.7334546350
HZ            1.9101600170        2.8256971080       -2.4077305090
HZ            2.5212945620        3.5551308470       -1.0816600980
C            -4.7223719620       -0.7359190560       -0.6747075235
O            -5.4626180450        0.2074104364       -0.9746111946
N            -5.1086286320       -2.0096127490       -0.8292963135
H            -4.4554960120       -2.7260502690       -0.5458091364
CH           -6.4006418210       -2.4370034250       -1.3614487650
HH           -6.4495721160       -3.5268305130       -1.3844394280
HH           -6.5314469460       -2.0556913870       -2.3757547990
HH           -7.2076248880       -2.0599174250       -0.7306527957
    45
 Energy=    -69.0150032139539
HH           -0.8094581419       -6.8197385860        4.5660372430
CH           -1.5526097710       -6.0920263510        4.2409089830
HH           -2.4901618090       -6.6040167480        4.0261646160
HH           -1.7154084020       -5.3624599230        5.0336743540
C            -1.0678383120       -5.3803813280        2.9902412140
O             0.0256475378       -5.6545335870        2.4966763380
N            -1.8763508490       -4.4547491340        2.4791288760
H            -2.7558927380       -4.2765324720        2.9458386900
CA           -1.6231516740       -3.6862626570        1.2463612910
HA           -0.5887293684       -3.3374893360        1.2534654110
CB           -1.8043254080       -4.5863143990        0.0040135007
HB           -1.2109771840       -5.4941904720        0.1261258008
HB           -1.4273746290       -4.0603617960       -0.8751190567
OG           -3.1703427970       -4.9358031560       -0.2152571956
HG           -3.2193826620       -5.6008896040       -0.9370956066
C            -2.5219918700       -2.4337899780        1.1482660240
O            -3.4020706570       -2.2076798960        1.9874714360
N            -2.3272829790       -1.6139712970        0.1049533803
H            -1.5865017810       -1.8302197930       -0.5497163979
CA           -3.1371164020       -0.4105704539       -0.1652993955
HA           -3.3342656990        0.0966696003        0.7810538055
CB           -2.3226449350        0.5498924982       -1.0566359010
HB           -2.9465298140        1.4092563960       -1.3093452210
HB           -2.0522995740        0.0421969734       -1.9847019540
CG           -1.0509763860        1.0698121120       -0.3644546937
HG           -0.3842182370        0.2357639644       -0.1415696983
HG           -1.3270786310        1.5592972430        0.5709064684
CD           -0.3099742511        2.0732223810       -1.2584013300
HD           -0.0334578094        1.5845758390       -2.1949899070
HD           -0.9693601938        2.9155367540       -1.4778178820
CE            0.9533212075        2.5795116260       -0.5478214282
HE            0.6627694614        3.0453869580        0.3988231768
HE            1.5949626550        1.7238057800       -0.3162179459
NZ            1.7017311060        3.5585333920       -1.3812527810
HZ            1.1343728700        4.3678560400       -1.5933142110
HZ            1.9968472600        3.1451926250       -2.2552720930
HZ            2.5301154760        3.8826120870       -0.9003565312
C            -4.5293106300       -0.7118210095       -0.7768299594
O            -5.3271375600        0.2106443812       -0.9784200872
N            -4.8351048210       -1.9822412690       -1.0727759340
H            -4.1411122420       -2.6840778340       -0.8555840265
CH           -6.0973361710       -2.4305157310       -1.6546857550
HH           -6.0800243950       -3.5137862560       -1.7840596480
HH           -6.2479070390       -1.9597438780       -2.6277797180
HH           -6.9267783460       -2.1658911030       -0.9964958459
    45
 Energy=    -69.0150061279512
HH           -0.8094592431       -6.8197404353        4.5660357618
CH           -1.5526099234       -6.0920265953        4.2409089570
HH           -2.4901632234       -6.6040150867        4.0261654950
HH           -1.7154061282       -5.3624603555        5.0336749940
C            -1.0678385302       -5.3803817157        2.9902410868
O             0.0256470008       -5.6545345222        2.4966758142
N            -1.8763507711       -4.4547490723        2.4791290912
H            -2.7558923788       -4.2765319675        2.9458392668
CA           -1.6231516905       -3.6862627154        1.2463614106
HA           -0.5887292895       -3.3374896784        1.2534652744
CB           -1.8043259717       -4.5863144459        0.0040136770
HB           -1.2109782669       -5.4941908526        0.1261259947
HB           -1.4273748974       -4.0603621188       -0.8751189183
OG           -3.1703435590       -4.9358024418       -0.2152570053
HG           -3.2193837762       -5.6008890384       -0.9370952563
C            -2.5219915741       -2.4337897957        1.1482663228
O            -3.4020701203       -2.2076794809        1.9874719262
N            -2.3272827450       -1.6139712122        0.1049535917
H            -1.5865017004       -1.8302198638       -0.5497163091
CA           -3.1371162762       -0.4105704598       -0.1652992970
HA           -3.3342657807        0.0966695962        0.7810538575
CB           -2.3226448386        0.5498925736       -1.0566357177
HB           -2.9465298442        1.4092563277       -1.3093452098
HB           -2.0522992397        0.0421970137       -1.9847016813
CG           -1.0509765033        1.0698125165       -0.3644543801
HG           -0.3842182429        0.2357645206       -0.1415691601
HG           -1.3270789634        1.5592977808        0.5709066498
CD           -0.3099744814        2.0732227519       -1.2584011448
HD           -0.0334583686        1.5845762369       -2.1949898350
HD           -0.9693604074        2.9155372033       -1.4778174510
CE            0.9533212658        2.5795117993       -0.5478216184
HE            0.6627699361        3.0453870126        0.3988231735
HE            1.5949627258        1.7238058579       -0.3162185235
NZ            1.7017309312        3.5585336083       -1.3812531297
HZ            1.1343727387        4.3678564203       -1.5933140574
HZ            1.9968465276        3.1451929969       -2.2552727039
HZ            2.5301156305        3.8826120137       -0.9003572523
C            -4.5293103535       -0.7118212163       -0.7768301076
O            -5.3271372987        0.2106440780       -0.9784206239
N            -4.8351043654       -1.9822415510       -1.0727759323
H            -4.1411118221       -2.6840780361       -0.8555836367
CH           -6.0973354366       -2.4305162097       -1.6546861805
HH           -6.0800233244       -3.5137866976       -1.7840603229
HH           -6.2479061707       -1.9597441720       -2.6277800764
HH           -6.9267778445       -2.1658919679       -0.9964964089
    45
 Energy=    -68.6077611298762
HH           -2.4606173306       -6.6179166581        4.0066583821
CH           -1.5220816675       -6.1052566979        4.2154259305
HH           -0.7752577128       -6.8329369840        4.5321013564
HH           -1.6794562879       -5.3785197492        5.0118770677
C            -1.0485504182       -5.3888273994        2.9631817740
O             0.0412616736       -5.6597782722        2.4598190450
N            -1.8625199634       -4.4627007624        2.4617223957
H            -2.7385654460       -4.2874186509        2.9360531625
CA           -1.6206067082       -3.6900349246        1.2292959780
HA           -0.5866181370       -3.3398958637        1.2289927903
CB           -1.8107561885       -4.5863631033       -0.0143677670
HB           -1.2129075679       -5.4924614935        0.0986967313
HB           -1.4444889512       -4.0559261618       -0.8953266190
OG           -3.1775611562       -4.9402206726       -0.2211422507
HG           -3.2319318040       -5.5999832948       -0.9474718130
C            -2.5217841350       -2.4383989758        1.1425372270
O            -3.3976578431       -2.2179290501        1.9876134022
N            -2.3333187296       -1.6124660913        0.1028634694
H            -1.5956549541       -1.8241744303       -0.5568367267
CA           -3.1428784696       -0.4057710521       -0.1537955069
HA           -3.3337535627        0.0945910403        0.7974985865
CB           -2.3315014056        0.5601890694       -1.0420593460
HB           -2.9552455119        1.4224934166       -1.2849091165
HB           -2.0669044944        0.0591910801       -1.9754063469
CG           -1.0553349817        1.0727570564       -0.3526682348
HG           -0.3887588619        0.2359750640       -0.1397138152
HG           -1.3256855601        1.5554947466        0.5878650274
CD           -0.3174439803        2.0818174754       -1.2428199621
HD           -0.0466813699        1.5999295715       -2.1845768297
HD           -0.9766152613        2.9268301803       -1.4522791552
CE            0.9504123370        2.5806491251       -0.5350950566
HE            0.6656288994        3.0397055748        0.4166200237
HE            1.5918882356        1.7221826343       -0.3134645736
NZ            1.6959782540        3.5648569568       -1.3649595142
HZ            1.1288116946        4.3766741492       -1.5677981155
HZ            1.9857935306        3.1577699247       -2.2436751063
HZ            2.5274196246        3.8839330117       -0.8859975557
C            -4.5392780125       -0.6990449821       -0.7598671464
O            -5.3357780360        0.2283194055       -0.9428029054
N            -4.8441480161       -1.9676817508       -1.0687178970
H            -4.1414752576       -2.6636088275       -0.8609555480
CH           -6.1014131772       -2.4382801679       -1.6489833611
HH           -6.5685067668       -3.1578154091       -0.9747045321
HH           -5.9031506585       -2.9276854115       -2.6038023216
HH           -6.7950224554       -1.6125540417       -1.8157848256
    45
 Energy=    -69.0150061279591
HH           -2.4485167796       -6.6457930433        3.9763390918
CH           -1.5102355215       -6.1342006975        4.1888354628
HH           -0.7630539245       -6.8637933471        4.5002227264
HH           -1.6679738458       -5.4133459687        4.9905427545
C            -1.0370518312       -5.4084593049        2.9418356707
O             0.0529011113       -5.6751971343        2.4365332247
N            -1.8514905314       -4.4791330167        2.4470978200
H            -2.7275407255       -4.3076112944        2.9227967970
CA           -1.6098348996       -3.6972088734        1.2204787309
HA           -0.5760645158       -3.3464440025        1.2228455813
CB           -1.7993928573       -4.5845024694       -0.0297704237
HB           -1.2033166697       -5.4924145847        0.0779387024
HB           -1.4306384391       -4.0485696271       -0.9063480025
OG           -3.1664750781       -4.9344190913       -0.2415960569
HG           -3.2201138960       -5.5919711530       -0.9699803989
C            -2.5118620239       -2.4455887947        1.1429001777
O            -3.3855046281       -2.2300967982        1.9915708843
N            -2.3272491942       -1.6144467866        0.1067358258
H            -1.5914138232       -1.8223003761       -0.5561788810
CA           -3.1415815925       -0.4099048553       -0.1442259620
HA           -3.3319879827        0.0869510832        0.8089918935
CB           -2.3362606391        0.5615242172       -1.0319856854
HB           -2.9638436452        1.4222393005       -1.2705433750
HB           -2.0725106146        0.0641679484       -1.9675179507
CG           -1.0599976190        1.0766961543       -0.3447283242
HG           -0.3898348903        0.2416956578       -0.1360742010
HG           -1.3294096431        1.5557547418        0.5979533201
CD           -0.3282477187        2.0909492899       -1.2340480492
HD           -0.0584334455        1.6127430855       -2.1779516681
HD           -0.9910261326        2.9341940254       -1.4392066159
CE            0.9398191028        2.5922809209       -0.5284694665
HE            0.6560960052        3.0475830154        0.4253635171
HE            1.5849789177        1.7354814739       -0.3111219650
NZ            1.6795168635        3.5815252802       -1.3575965023
HZ            1.1088865475        4.3918883949       -1.5564965553
HZ            1.9682948574        3.1779997982       -2.2382941503
HZ            2.5111671286        3.9021963006       -0.8800645150
C            -4.5381309469       -0.7075117024       -0.7475553627
O            -5.3393549187        0.2154126585       -0.9329186874
N            -4.8438737547       -1.9753619231       -1.0543759906
H            -4.1467793983       -2.6780437204       -0.8502428483
CH           -6.1099393039       -2.4200337528       -1.6306936057
HH           -6.9344972442       -2.1640230669       -0.9630281189
HH           -6.0915906952       -3.5018458780       -1.7716126950
HH           -6.2693477559       -1.9393534862       -2.5975157248
    45
 Energy=    -69.0150061279590
HH           -2.4485174104       -6.6457921628        3.9763395263
CH           -1.5102356236       -6.1342006276        4.1888355157
HH           -0.7630544991       -6.8637939491        4.5002223408
HH           -1.6679729881       -5.4133458700        4.9905429702
C            -1.0370519065       -5.4084594383        2.9418356147
O             0.0529009334       -5.6751975261        2.4365330836
N            -1.8514904770       -4.4791330236        2.4470977769
H            -2.7275405721       -4.3076110841        2.9227968575
CA           -1.6098348155       -3.6972089256        1.2204786638
HA           -0.5760644018       -3.3464441458        1.2228454887
CB           -1.7993928759       -4.5845025130       -0.0297704864
HB           -1.2033169265       -5.4924147798        0.0779387095
HB           -1.4306382353       -4.0485697720       -0.9063480315
OG           -3.1664751634       -4.9344187871       -0.2415962684
HG           -3.2201140871       -5.5919707303       -0.9699807071
C            -2.5118618514       -2.4455887751        1.1429001289
O            -3.3855043655       -2.2300966756        1.9915709023
N            -2.3272490824       -1.6144468310        0.1067357165
H            -1.5914137877       -1.8223004884       -0.5561790531
CA           -3.1415815008       -0.4099049088       -0.1442260776
HA           -3.3319878632        0.0869510424        0.8089917766
CB           -2.3362605865        0.5615241761       -1.0319858136
HB           -2.9638435912        1.4222392763       -1.2705434357
HB           -2.0725106098        0.0641679576       -1.9675181200
CG           -1.0599975569        1.0766960753       -0.3447284507
HG           -0.3898348475        0.2416955701       -0.1360742890
HG           -1.3294096013        1.5557546858        0.5979531738
CD           -0.3282476237        2.0909491896       -1.2340481651
HD           -0.0584331195        1.6127429010       -2.1779516743
HD           -0.9910260970        2.9341938243       -1.4392069524
CE            0.9398189968        2.5922810432       -0.5284693885
HE            0.6560956535        3.0475831096        0.4253635335
HE            1.5849789069        1.7354817034       -0.3111217466
NZ            1.6795167498        3.5815255057       -1.3575963008
HZ            1.1088863835        4.3918885737       -1.5564964071
HZ            1.9682949153        3.1780000670       -2.2382939135
HZ            2.5111669126        3.9021966040       -0.8800641868
C            -4.5381308767       -0.7075117769       -0.7475554155
O            -5.3393548418        0.2154125798       -0.9329187955
N            -4.8438737199       -1.9753620166       -1.0543759187
H            -4.1467793710       -2.6780438177       -0.8502427541
CH           -6.1099393341       -2.4200338690       -1.6306933630
HH           -6.9344972467       -2.1640226233       -0.9630280582
HH           -6.0915909632       -3.5018460734       -1.7716118526
HH           -6.2693476234       -1.9393540965       -2.5975157550
    45
 Energy=    -64.7201900900162
HH            0.9147271533       -4.5767841769        3.0883683011
CH            0.7597844282       -3.5624864425        2.7217311751
HH            1.7171219886       -3.1345349013        2.4252980941
HH            0.3226115361       -2.9569427983        3.5150898638
C            -0.1832093143       -3.5938105818        1.5326928643
O             0.1754670913       -3.1704219387        0.4347448092
N            -1.3971376166       -4.0954403629        1.7448250338
H            -1.6317234328       -4.4325192910        2.6695886047
CA           -2.4549041572       -4.1979912250        0.7283900721
HA           -1.9971419962       -4.3617591084       -0.2491185893
CB           -3.3304788822       -5.4387737823        1.0046928427
HB           -2.7666550667       -6.3249177486        0.7057663202
HB           -4.2293094973       -5.3890550198        0.3863044235
OG           -3.6911405155       -5.5789680415        2.3810600759
HG           -4.2494497178       -6.3809072019        2.4856362463
C            -3.2747107489       -2.8920947158        0.6258201785
O            -4.2682767463       -2.6821073797        1.3296808075
N            -2.8542220737       -1.9884969455       -0.2712508078
H            -2.0084934643       -2.1905971533       -0.7903376303
CA           -3.4512892172       -0.6496598627       -0.4480825146
HA           -3.8102209416       -0.2947247842        0.5198003269
CB           -2.3547948965        0.3239771442       -0.9268158676
HB           -2.8097604749        1.2958339380       -1.1274031576
HB           -1.9214648262       -0.0472282449       -1.8577344811
CG           -1.2417393772        0.5219520630        0.1165633082
HG           -0.7443484229       -0.4285457628        0.3111269921
HG           -1.6826518753        0.8844705847        1.0465569828
CD           -0.1994816405        1.5346749233       -0.3756695949
HD            0.2385211512        1.1748368149       -1.3089796267
HD           -0.6875507830        2.4943153943       -0.5580697559
CE            0.9033462678        1.7083521090        0.6781668747
HE            0.4471119626        2.0459686563        1.6138416326
HE            1.3688124964        0.7356474528        0.8648615533
NZ            1.9367315071        2.6853068847        0.2411313715
HZ            1.5326155257        3.5977042534        0.0793659617
HZ            2.3856223260        2.3856809911       -0.6136484922
HZ            2.6555705884        2.7890933767        0.9447443166
C            -4.6828084778       -0.6191087477       -1.3854081415
O            -5.3624835605        0.4090919702       -1.4784715528
N            -4.9848391195       -1.7286181641       -2.0716444630
H            -4.3796746206       -2.5251831861       -1.9387419531
CH           -6.1123748689       -1.8686718912       -2.9905291035
HH           -7.0504166553       -1.6994375804       -2.4587943344
HH           -6.1227655547       -2.8739614142       -3.4147405771
HH           -6.0252420760       -1.1434494985       -3.8015679897
    45
 Energy=    -70.1327426416852
HH            0.2423038804       -5.9503773410       -0.6288442462
CH           -0.1532798804       -5.0965225696       -1.1780401731
HH           -0.2032864930       -5.3401214855       -2.2390456494
HH            0.5049250846       -4.2403657561       -1.0334016336
C            -1.5389945121       -4.7622031926       -0.6590381840
O            -2.5138635911       -4.7800985343       -1.4091439105
N            -1.6348250618       -4.4325131057        0.6273887183
H            -0.7925148128       -4.4079376942        1.1882309764
CA           -2.9019253750       -4.1176553036        1.3150801000
HA           -3.6241017167       -4.9043572080        1.0905118810
CB           -2.6750036918       -4.1256869184        2.8364898357
HB           -2.4086558999       -5.1392391320        3.1430164097
HB           -3.6039713307       -3.8508873502        3.3401776321
OG           -1.6325916003       -3.2317744420        3.2255333106
HG           -1.5212650977       -3.2750141286        4.2009692158
C            -3.5534063096       -2.7908022850        0.8688502906
O            -4.7355365632       -2.5550503433        1.1373424689
N            -2.8199405472       -1.9423422525        0.1345386614
H            -1.8514840577       -2.1853192986       -0.0244961615
CA           -3.3265797888       -0.7027905832       -0.4786796985
HA           -4.0651694035       -0.2551030351        0.1887409256
CB           -2.1584070405        0.2926401741       -0.6318691065
HB           -2.5238727313        1.1865292916       -1.1408700155
HB           -1.3784079594       -0.1560345133       -1.2503568420
CG           -1.5603159124        0.7191332551        0.7198158016
HG           -1.1436717264       -0.1504020660        1.2301480845
HG           -2.3483774291        1.1479003447        1.3409930042
CD           -0.4495139587        1.7598089942        0.5254787017
HD            0.3390956514        1.3320020009       -0.0969967519
HD           -0.8620031016        2.6377449716        0.0240057987
CE            0.1318558004        2.1690020132        1.8861684003
HE           -0.6737328849        2.5736583206        2.5065143148
HE            0.5223201214        1.2769498591        2.3855062644
NZ            1.2135727346        3.1803383385        1.7438368227
HZ            0.8716084986        4.0220372111        1.3005620827
HZ            1.9785894304        2.8224449292        1.1883877166
HZ            1.5859768445        3.4396162875        2.6475001091
C            -4.0547063450       -0.9322035099       -1.8259598623
O            -4.6545233903        0.0022629550       -2.3689327896
N            -4.0190195553       -2.1570612938       -2.3686469396
H            -3.5119647539       -2.8729187919       -1.8633238048
CH           -4.6538590480       -2.5377051860       -3.6271996438
HH           -5.7318823159       -2.3792931924       -3.5645592483
HH           -4.4619992920       -3.5920727225       -3.8322476947
HH           -4.2503114650       -1.9385071068       -4.4452947707
    45
 Energy=    -70.1327397474665
HH            0.2423034473       -5.9503776388       -0.6288452428
CH           -0.1532797850       -5.0965219636       -1.1780401216
HH           -0.2032861019       -5.3401193824       -2.2390459675
HH            0.5049254733       -4.2403656163       -1.0334001592
C            -1.5389944253       -4.7622028526       -0.6590379633
O            -2.5138635895       -4.7800983998       -1.4091435773
N            -1.6348249120       -4.4325127212        0.6273889379
H            -0.7925146322       -4.4079370895        1.1882311444
CA           -2.9019252340       -4.1176550260        1.3150803607
HA           -3.6241014699       -4.9043570566        1.0905122647
CB           -2.6750034871       -4.1256864281        2.8364900916
HB           -2.4086556674       -5.1392385999        3.1430167728
HB           -3.6039711136       -3.8508868216        3.3401778899
OG           -1.6325913899       -3.2317738928        3.2255334308
HG           -1.5212646532       -3.2750136858        4.2009693079
C            -3.5534063982       -2.7908021673        0.8688504187
O            -4.7355366726       -2.5550503796        1.1373426400
N            -2.8199408072       -1.9423421199        0.1345386330
H            -1.8514842848       -2.1853190316       -0.0244962009
CA           -3.3265802366       -0.7027905574       -0.4786797928
HA           -4.0651699531       -0.2551031081        0.1887407804
CB           -2.1584076473        0.2926403849       -0.6318692027
HB           -2.5238735827        1.1865296151       -1.1408697422
HB           -1.3784086771       -0.1560340379       -1.2503572708
CG           -1.5603161776        0.7191331062        0.7198156634
HG           -1.1436717996       -0.1504023432        1.2301475614
HG           -2.3483775412        1.1478999516        1.3409932275
CD           -0.4495143305        1.7598089537        0.5254786042
HD            0.3390950158        1.3320023166       -0.0969974327
HD           -0.8620037155        2.6377452038        0.0240063764
CE            0.1318560005        2.1690011655        1.8861682961
HE           -0.6737324103        2.5736571680        2.5065147694
HE            0.5223204652        1.2769486913        2.3855054807
NZ            1.2135729442        3.1803374992        1.7438368756
HZ            0.8716085600        4.0220367096        1.3005628913
HZ            1.9785893396        2.8224444130        1.1883871501
HZ            1.5859775189        3.4396147935        2.6475001576
C            -4.0547066355       -0.9322036487       -1.8259600092
O            -4.6545237567        0.0022627023       -2.3689330464
N            -4.0190195634       -2.1570614420       -2.3686470447
H            -3.5119647536       -2.8729188492       -1.8633237878
CH           -4.6538586048       -2.5377054194       -3.6271999517
HH           -5.7318817167       -2.3792919601       -3.5645605309
HH           -4.4620000647       -3.5920733511       -3.8322470830
HH           -4.2503095706       -1.9385084798       -4.4452951982
    45
 Energy=    -67.5308869904219
HH           -0.1674364737       -5.3276232917       -2.2087573949
CH           -0.1330513992       -5.1118467537       -1.1411513223
HH            0.2022409320       -5.9978839995       -0.6029594892
HH            0.5650813653       -4.2955556138       -0.9583631173
C            -1.5124952612       -4.7162533256       -0.6493192955
O            -2.4678895860       -4.6691932091       -1.4228163553
N            -1.6233765549       -4.4103041873        0.6412272101
H            -0.8069199129       -4.4821116171        1.2377267614
CA           -2.8855890263       -4.0857900415        1.3334420242
HA           -3.6031472391       -4.8797083838        1.1201697198
CB           -2.6758650598       -4.0579458070        2.8671674351
HB           -3.3145858438       -4.8226270353        3.3135813111
HB           -2.9988120644       -3.0908804927        3.2585175277
OG           -1.3233352786       -4.2873622070        3.2768071459
HG           -1.2799830783       -4.2755528201        4.2586530847
C            -3.5497991818       -2.7731731636        0.8633625346
O            -4.7339651380       -2.5457971667        1.1272765465
N            -2.8197847803       -1.9216309581        0.1294714308
H            -1.8505139950       -2.1606690894       -0.0334864300
CA           -3.3353941588       -0.6886435437       -0.4900868470
HA           -4.0783253985       -0.2432192746        0.1741323778
CB           -2.1747790898        0.3148355471       -0.6467411946
HB           -2.5459634069        1.2023503584       -1.1627443554
HB           -1.3897137080       -0.1317738087       -1.2602941787
CG           -1.5835989390        0.7553436313        0.7033884466
HG           -1.1616752912       -0.1074252200        1.2207978655
HG           -2.3765814878        1.1823269592        1.3194979964
CD           -0.4804860201        1.8033286989        0.5042385754
HD            0.3132145339        1.3770981215       -0.1128455623
HD           -0.8985648704        2.6740059458       -0.0052172195
CE            0.0940452880        2.2280603485        1.8631168823
HE           -0.7164526680        2.6307668928        2.4783471995
HE            0.4909750561        1.3433952853        2.3704520409
NZ            1.1674497805        3.2474723442        1.7153697770
HZ            0.8193997709        4.0827143679        1.2646770784
HZ            1.9368426952        2.8918014104        1.1645510310
HZ            1.5354564771        3.5170347451        2.6178281434
C            -4.0597536310       -0.9284470244       -1.8374580097
O            -4.6753227650       -0.0031561313       -2.3784834368
N            -4.0044251054       -2.1515355904       -2.3820906064
H            -3.4832824498       -2.8602864365       -1.8797584413
CH           -4.6344621134       -2.5403236263       -3.6405204652
HH           -5.7148787548       -2.3999078046       -3.5762936346
HH           -4.4253838254       -3.5910198056       -3.8475112830
HH           -4.2418289339       -1.9331786242       -4.4580611064
    45
 Energy=    -70.2598229122553
HH           -0.1470178288       -5.3130198437       -2.2185651716
CH           -0.0979684729       -5.1036315059       -1.1502415968
HH            0.2286013867       -5.9981022257       -0.6206807955
HH            0.6151977016       -4.2996171632       -0.9710220482
C            -1.4657874367       -4.6885508219       -0.6420305199
O            -2.4277335720       -4.6257349176       -1.4062874712
N            -1.5579540324       -4.3856971498        0.6517479284
H            -0.7354927926       -4.5011669531        1.2298031478
CA           -2.8214438142       -4.0724403437        1.3494320546
HA           -3.5278798477       -4.8852382352        1.1757083142
CB           -2.5696096441       -3.9892061863        2.8646212163
HB           -3.5232715215       -3.8426501075        3.3759462002
HB           -1.9313951381       -3.1273406172        3.0711327840
OG           -1.9436516800       -5.1714664111        3.3613231226
HG           -1.8199262893       -5.0855228533        4.3327863540
C            -3.5096511482       -2.7743200726        0.8751815617
O            -4.6953099705       -2.5636749881        1.1455010267
N            -2.7968416294       -1.9131654391        0.1353286793
H            -1.8261802957       -2.1393132582       -0.0381999118
CA           -3.3352692535       -0.6877226048       -0.4800804740
HA           -4.0776677316       -0.2519308653        0.1910966847
CB           -2.1901424644        0.3314237206       -0.6484862261
HB           -2.5781896670        1.2129886805       -1.1622771613
HB           -1.4045040824       -0.1051184840       -1.2685045799
CG           -1.5932497667        0.7820461130        0.6957527831
HG           -1.1548467716       -0.0740245760        1.2105687824
HG           -2.3866420303        1.1988389484        1.3182726800
CD           -0.5067205920        1.8450644241        0.4853488164
HD            0.2875264202        1.4289450486       -0.1379091347
HD           -0.9414128121        2.7088370614       -0.0219583801
CE            0.0735558886        2.2804547966        1.8384181602
HE           -0.7372181052        2.6726128180        2.4600775422
HE            0.4876535000        1.4025468527        2.3437712486
NZ            1.1308173166        3.3149541819        1.6794806939
HZ            0.7668105131        4.1442777602        1.2304643570
HZ            1.9003856673        2.9694133457        1.1224917857
HZ            1.5028288132        3.5914440339        2.5781952138
C            -4.0696899805       -0.9379373777       -1.8200292942
O            -4.7026966246       -0.0211579171       -2.3554000925
N            -4.0037609295       -2.1604482682       -2.3645204692
H            -3.4682068636       -2.8620975631       -1.8669075544
CH           -4.6411458850       -2.5584169257       -3.6163262651
HH           -5.7226185432       -2.4321652147       -3.5414020206
HH           -4.4203237210       -3.6064389804       -3.8246455062
HH           -4.2646728630       -1.9468213092       -4.4381360618
