    45
Energy=    -70.2598229122553    
HH        -4.554278954        -4.798764029         2.476008013    
CH        -4.623656835        -4.509545846         1.427626342    
HH        -5.237173199        -5.233508256        0.8922419154    
HH        -5.083254292        -3.524457630         1.353221459    
C         -3.238426551        -4.468886808        0.8103880628    
O         -2.243188045        -4.738047712         1.481527107    
N         -3.163583350        -4.114950049       -0.4714875034    
H         -4.026609184        -3.949133351       -0.9730997398    
CA        -1.922331129        -4.128393773        -1.271744703    
HA        -1.472140434        -5.119561467        -1.202555394    
CB        -2.256796269        -3.870240736        -2.750810844    
HB        -1.344921742        -3.967350449        -3.343649313    
HB        -2.630212003        -2.849418201        -2.856919676    
OG        -3.237049656        -4.785774181        -3.237819267    
HG        -3.406018079        -4.599936532        -4.188266066    
C        -0.8507191669        -3.118399072       -0.8078291835    
O         0.3198842941        -3.237644513        -1.180252155    
N         -1.221361624        -2.143415596        0.3425061731E-01
H         -2.199089869        -2.093746978        0.2892387350    
CA       -0.3026762336        -1.169898221        0.6495748786    
HA        0.4795737483       -0.9188979775       -0.6919668627E-01
CB        -1.084169619        0.1200189067        0.9716260942    
HB       -0.4170389595        0.8151531224         1.484893705    
HB        -1.911867538       -0.1157202224         1.643610276    
CG        -1.627135737        0.8160210962       -0.2881709902    
HG        -2.334923548        0.1597396549       -0.7965220582    
HG       -0.7979977132         1.030844341       -0.9642624667    
CD        -2.336688207         2.128127506        0.7201711059E-01
HD        -3.166387042         1.914140667        0.7489540357    
HD        -1.630781164         2.793358888        0.5735981527    
CE        -2.868943984         2.805437350        -1.198824100    
HE        -2.030347675         2.991683112        -1.876814894    
HE        -3.559183761         2.120664272        -1.701054939    
NZ        -3.562935527         4.085529277       -0.8938778423    
HZ        -2.939022707         4.742182058       -0.4450636942    
HZ        -4.353723564         3.936574164       -0.2820468080    
HZ        -3.907377982         4.519427371        -1.739820405    
C         0.4294819517        -1.713483996         1.900935328    
O          1.342103254        -1.056364574         2.413887866    
N         0.5293349846E-01    -2.901035318         2.394172874    
H        -0.7011190717        -3.383149902         1.919074197    
CH        0.6426135133        -3.551822940         3.560538741    
HH         1.704589625        -3.735609296         3.388592351    
HH        0.1429317425        -4.504658050         3.742013099    
HH        0.5263021887        -2.917377508         4.440938165    
    45
Energy=    -67.5308869904219    
HH        -4.539836812        -4.817875910         2.463657516    
CH        -4.593316056        -4.526803256         1.414876674    
HH        -5.213365839        -5.239602687        0.8721164735    
HH        -5.035282201        -3.534038205         1.336037660    
C         -3.201400470        -4.509245284        0.8119496549    
O         -2.216277138        -4.792234787         1.492199340    
N         -3.107559947        -4.157937016       -0.4683574476    
H         -3.953579025        -3.950822187       -0.9869368892    
CA        -1.863816068        -4.160642573        -1.262551974    
HA        -1.394422473        -5.139734964        -1.154251735    
CB        -2.175730432        -3.966172605        -2.766534667    
HB        -1.824627557        -4.848381869        -3.305441482    
HB        -1.616613058        -3.107074046        -3.143366742    
OG        -3.564133492        -3.769283649        -3.055230126    
HG        -3.678897342        -3.676570088        -4.026967630    
C        -0.8111835477        -3.129630749       -0.7998508597    
O         0.3633747470        -3.232911881        -1.165015592    
N         -1.201497151        -2.158486469        0.3751129893E-01
H         -2.182484483        -2.120790232        0.2812800335    
CA       -0.3020421135        -1.171517340        0.6594727357    
HA        0.4840681657       -0.9119544709       -0.5200075716E-01
CB        -1.103788191        0.1086903722        0.9706152266    
HB       -0.4508266900        0.8141832793         1.487955188    
HB        -1.934380320       -0.1363779504         1.635666403    
CG        -1.644717373        0.7938061440       -0.2960352344    
HG        -2.338949636        0.1265875951       -0.8088345472    
HG       -0.8124978256         1.018033549       -0.9652584841    
CD        -2.375343191         2.097087684        0.5387136261E-01
HD        -3.207951552         1.873716666        0.7241657854    
HD        -1.683094124         2.773523088        0.5594802763    
CE        -2.905683214         2.762975817        -1.223769395    
HE        -2.063772117         2.958928256        -1.894870123    
HE        -3.581680369         2.066969165        -1.729908768    
NZ        -3.620338766         4.034060462       -0.9290856732    
HZ        -3.009782374         4.700820122       -0.4768198177    
HZ        -4.414395272         3.875809104       -0.3238589932    
HZ        -3.963275440         4.460455440        -1.779441881    
C         0.4241396970        -1.702795283         1.919637459    
O          1.323060164        -1.032946896         2.440254632    
N         0.5754016663E-01    -2.893944113         2.411979617    
H        -0.6852123862        -3.386639656         1.930497758    
CH        0.6434093867        -3.534320731         3.586042444    
HH         1.709344711        -3.705022242         3.425466337    
HH        0.1540404387        -4.492980684         3.764957278    
HH        0.5100599673        -2.899200320         4.463538064    
    45
Energy=    -70.1327397474665    
HH        -4.506929589        -4.842211365         2.489804142    
CH        -4.566675927        -4.520545371         1.450316238    
HH        -5.235686792        -5.184555658        0.9037950361    
HH        -4.955969978        -3.503802669         1.407386160    
C         -3.188768935        -4.561423351        0.8170399281    
O         -2.205842983        -4.910413213         1.469275483    
N         -3.102035060        -4.183409224       -0.4566773842    
H         -3.941817586        -3.879299444       -0.9330355484    
CA        -1.856091651        -4.197059548        -1.247270059    
HA        -1.379307608        -5.171372877        -1.127855053    
CB        -2.193894269        -4.032811095        -2.738966204    
HB        -2.767242606        -4.903483099        -3.063604030    
HB        -1.267585373        -4.000844348        -3.316137781    
OG        -2.957610835        -2.852789720        -2.986643176    
HG        -3.152722892        -2.793663176        -3.947982767    
C        -0.8133125472        -3.147123184       -0.8064381757    
O         0.3613878241        -3.241496167        -1.175588202    
N         -1.207781831        -2.177965314        0.3153379923E-01
H         -2.189448066        -2.143990159        0.2711480429    
CA       -0.3154616113        -1.181709603        0.6483381516    
HA        0.4669185837       -0.9185159068       -0.6580423747E-01
CB        -1.127029892        0.9321551298E-01    0.9563963106    
HB       -0.4782104543        0.8069291734         1.467601752    
HB        -1.953007360       -0.1556237772         1.625780245    
CG        -1.678754949        0.7670274943       -0.3117670463    
HG        -2.369372229        0.9133392887E-01   -0.8183329945    
HG       -0.8511040793        0.9947245916       -0.9854816419    
CD        -2.419218409         2.065864887        0.3376030056E-01
HD        -3.247010171         1.839150957        0.7088612035    
HD        -1.730807475         2.751398335        0.5322863530    
CE        -2.960749661         2.718990218        -1.245722943    
HE        -2.123351547         2.918570963        -1.921356601    
HE        -3.632109984         2.013511005        -1.744854324    
NZ        -3.686107901         3.985119279       -0.9559927510    
HZ        -3.080052146         4.660313192       -0.5102365086    
HZ        -4.476277065         3.823165786       -0.3466769853    
HZ        -4.036329524         4.403030501        -1.807586689    
C         0.4173328429        -1.704131421         1.908516763    
O          1.304062674        -1.021141657         2.432981107    
N         0.6879088127E-01    -2.902458606         2.396973371    
H        -0.6628362822        -3.405768713         1.910857509    
CH        0.6616216015        -3.536437014         3.571064075    
HH         1.730645070        -3.689367230         3.413097231    
HH        0.1874470578        -4.503399911         3.746241182    
HH        0.5155921318        -2.905824405         4.449797117    
