    45
Energy=    -69.0150032139539    
HH       -0.8094581419        -6.819738586         4.566037243    
CH        -1.552609771        -6.092026351         4.240908983    
HH        -2.490161809        -6.604016748         4.026164616    
HH        -1.715408402        -5.362459923         5.033674354    
C         -1.067838312        -5.380381328         2.990241214    
O         0.2564753782E-01    -5.654533587         2.496676338    
N         -1.876350849        -4.454749134         2.479128876    
H         -2.755892738        -4.276532472         2.945838690    
CA        -1.623151674        -3.686262657         1.246361291    
HA       -0.5887293684        -3.337489336         1.253465411    
CB        -1.804325408        -4.586314399        0.4013500749E-02
HB        -1.210977184        -5.494190472        0.1261258008    
HB        -1.427374629        -4.060361796       -0.8751190567    
OG        -3.170342797        -4.935803156       -0.2152571956    
HG        -3.219382662        -5.600889604       -0.9370956066    
C         -2.521991870        -2.433789978         1.148266024    
O         -3.402070657        -2.207679896         1.987471436    
N         -2.327282979        -1.613971297        0.1049533803    
H         -1.586501781        -1.830219793       -0.5497163979    
CA        -3.137116402       -0.4105704539       -0.1652993955    
HA        -3.334265699        0.9666960027E-01    0.7810538055    
CB        -2.322644935        0.5498924982        -1.056635901    
HB        -2.946529814         1.409256396        -1.309345221    
HB        -2.052299574        0.4219697342E-01    -1.984701954    
CG        -1.050976386         1.069812112       -0.3644546937    
HG       -0.3842182370        0.2357639644       -0.1415696983    
HG        -1.327078631         1.559297243        0.5709064684    
CD       -0.3099742511         2.073222381        -1.258401330    
HD       -0.3345780940E-01     1.584575839        -2.194989907    
HD       -0.9693601938         2.915536754        -1.477817882    
CE        0.9533212075         2.579511626       -0.5478214282    
HE        0.6627694614         3.045386958        0.3988231768    
HE         1.594962655         1.723805780       -0.3162179459    
NZ         1.701731106         3.558533392        -1.381252781    
HZ         1.134372870         4.367856040        -1.593314211    
HZ         1.996847260         3.145192625        -2.255272093    
HZ         2.530115476         3.882612087       -0.9003565312    
C         -4.529310630       -0.7118210095       -0.7768299594    
O         -5.327137560        0.2106443812       -0.9784200872    
N         -4.835104821        -1.982241269        -1.072775934    
H         -4.141112242        -2.684077834       -0.8555840265    
CH        -6.097336171        -2.430515731        -1.654685755    
HH        -6.080024395        -3.513786256        -1.784059648    
HH        -6.247907039        -1.959743878        -2.627779718    
HH        -6.926778346        -2.165891103       -0.9964958459    
    45
Energy=    -65.5588722626868    
HH        -1.565304725        -7.102097067         4.204559003    
CH        -2.169839416        -6.307485342         3.767890595    
HH        -2.925283933        -6.745092237         3.115922730    
HH        -2.661814533        -5.748870506         4.563601889    
C         -1.288401978        -5.370012954         2.961598960    
O        -0.7585337954E-01    -5.565097588         2.881555413    
N         -1.894366944        -4.341944597         2.370620573    
H         -2.893819395        -4.251641504         2.490558385    
CA        -1.229289004        -3.359444962         1.494438836    
HA       -0.2839267439        -3.070432123         1.956881151    
CB       -0.8676052683        -3.999424466        0.1324567048    
HB       -0.1973477227        -4.842757633        0.3071325371    
HB       -0.3264896582        -3.267669801       -0.4710514774    
OG        -2.012405140        -4.458126098       -0.5887130763    
HG        -1.714649583        -4.977418892        -1.368080309    
C         -2.051284046        -2.051944841         1.386359027    
O         -2.245591724        -1.366350105         2.394950817    
N         -2.544582544        -1.693174061        0.1919959869    
H         -2.351868776        -2.314533540       -0.5857644004    
CA        -3.311406153       -0.4643217080       -0.9531428757E-01
HA        -3.482117228        0.8300526343E-01    0.8331104081    
CB        -2.473888335        0.4363060265        -1.028822532    
HB        -3.061889925         1.319040728        -1.286684236    
HB        -2.252331064       -0.1058134380        -1.950267252    
CG        -1.158661137        0.9098694164       -0.3865973888    
HG       -0.5209592280        0.5035437704E-01   -0.1757610141    
HG        -1.381478790         1.422795911        0.5503810179    
CD       -0.4054951887         1.868131069        -1.319002953    
HD       -0.1828750633         1.355856083        -2.257322564    
HD        -1.034399411         2.736014724        -1.527968236    
CE        0.9023071449         2.326854150       -0.6584300540    
HE        0.6649524362         2.816418219        0.2910999702    
HE         1.513671062         1.446615366       -0.4370965703    
NZ         1.663535679         3.261990806        -1.529832055    
HZ         1.124988960         4.092896362        -1.733454635    
HZ         1.910160017         2.825697108        -2.407730509    
HZ         2.521294562         3.555130847        -1.081660098    
C         -4.722371962       -0.7359190560       -0.6747075235    
O         -5.462618045        0.2074104364       -0.9746111946    
N         -5.108628632        -2.009612749       -0.8292963135    
H         -4.455496012        -2.726050269       -0.5458091364    
CH        -6.400641821        -2.437003425        -1.361448765    
HH        -6.449572116        -3.526830513        -1.384439428    
HH        -6.531446946        -2.055691387        -2.375754799    
HH        -7.207624888        -2.059917425       -0.7306527957    
    45
Energy=    -70.1327397474736    
HH        -2.928201055        -6.130416490       -0.7903481085    
CH        -2.029410578        -5.683720384       -0.3658342567    
HH        -1.365447075        -6.472150890       -0.1270477150E-01
HH        -1.518608244        -5.100106386        -1.131101694    
C         -2.400474854        -4.780439734        0.7950847526    
O         -3.575866426        -4.630036644         1.125511948    
N         -1.400521361        -4.153341613         1.411213142    
H        -0.4560700475        -4.294943883         1.075661265    
CA        -1.565683319        -3.270354078         2.581961884    
HA        -2.177630001        -3.786865576         3.323316429    
CB       -0.1926332198        -3.008710628         3.224240387    
HB        0.1962167964        -3.953045611         3.610523799    
HB       -0.3134630405        -2.321472420         4.064062317    
OG        0.7400421682        -2.468146286         2.288845219    
HG         1.600071596        -2.323199207         2.741700828    
C         -2.286207114        -1.939374596         2.276304446    
O         -2.745774172        -1.253603600         3.194789734    
N         -2.449723253        -1.589704520        0.9925352569    
H         -2.024224440        -2.182934984        0.2930595451    
CA        -3.224293892       -0.4265295485        0.5274839169    
HA        -3.098971405        0.3893718658         1.241618499    
CB        -2.660233712        0.3886893298E-01   -0.8305357099    
HB        -3.273397937        0.8624567622        -1.201234471    
HB        -2.721717363       -0.7811099465        -1.548929072    
CG        -1.205029440        0.5282874524       -0.7330089796    
HG       -0.5608745331       -0.2905906498       -0.4095492484    
HG        -1.146301048         1.333567276        0.1033709249E-02
CD       -0.7070025704         1.045338359        -2.089210095    
HD       -0.7664601210        0.2404451464        -2.824744838    
HD        -1.341400260         1.872441735        -2.414530757    
CE        0.7456438440         1.526876088        -1.967365991    
HE        0.7932164239         2.316111416        -1.210799163    
HE         1.365374819        0.6940818833        -1.621035125    
NZ         1.268905960         2.039207351        -3.262311707    
HZ        0.7221899498         2.822187035        -3.593873832    
HZ         1.251601573         1.321410707        -3.973880735    
HZ         2.225547992         2.352407552        -3.166088703    
C         -4.748009968       -0.6905654746        0.4466336351    
O         -5.523569125        0.2434448247        0.2143398194    
N         -5.188815666        -1.941175342        0.6408620758    
H         -4.494269335        -2.652754751        0.8310412875    
CH        -6.588504972        -2.354860379        0.6008571059    
HH        -6.660946741        -3.427387906        0.7878936031    
HH        -7.014579208        -2.136668542       -0.3799699417    
HH        -7.157212219        -1.822585716         1.365322996    
