    45
Energy=    -69.0150061279591    
HH        -1.275762664        -5.179493643         5.391957483    
CH       -0.2893385106        -4.876776897         5.041838765    
HH        0.4319979566        -5.660821210         5.270958859    
HH        0.3973518080E-02    -3.956725249         5.546537209    
C        -0.3365853060        -4.638606800         3.542954313    
O         0.3816967438        -5.286364556         2.782061525    
N         -1.176359037        -3.699072784         3.114259549    
H         -1.727799530        -3.200428482         3.800146131    
CA        -1.414565454        -3.346315663         1.702446064    
HA       -0.4536581116        -3.271778811         1.189782295    
CB        -2.233476772        -4.452984526         1.001722599    
HB        -1.756395132        -5.419353969         1.174163008    
HB        -2.231633880        -4.270356551       -0.7449099997E-01
OG        -3.583480693        -4.499279053         1.461691913    
HG        -4.025674452        -5.289301148         1.079428450    
C         -2.112516142        -1.976003330         1.556387400    
O         -2.492506886        -1.340099748         2.546924546    
N         -2.312087541        -1.513855322        0.3133644822    
H         -1.972104834        -2.060603157       -0.4673987855    
CA        -3.013609459       -0.2540280834        0.7262479634E-03
HA        -2.707600544        0.5041307392        0.7241199449    
CB        -2.579279714        0.2253290659        -1.399955016    
HB        -3.147364478         1.121393756        -1.656759275    
HB        -2.812225198       -0.5467079020        -2.136055060    
CG        -1.082164824        0.5716347240        -1.472697706    
HG       -0.4864684379       -0.3186207761        -1.266611764    
HG       -0.8531522815         1.329825565       -0.7220789243    
CD       -0.7092712880         1.108642374        -2.861088900    
HD       -0.9383690959        0.3508318943        -3.613200879    
HD        -1.295930253         2.005693141        -3.069794740    
CE        0.7870752244         1.448786138        -2.910255340    
HE         1.005606484         2.191193174        -2.136516343    
HE         1.361902573        0.5465614455        -2.679733022    
NZ         1.190789379         1.976102945        -4.241480598    
HZ        0.6852925876         2.821449911        -4.468923046    
HZ         1.014773634         1.299794372        -4.971877109    
HZ         2.177765412         2.195432456        -4.258265754    
C         -4.556590862       -0.3458199361        0.1178114574    
O         -5.248941852        0.6647688185       -0.4792709234E-01
N         -5.105591753        -1.534627280        0.4013548669    
H         -4.473139176        -2.309073979        0.5483536358    
CH        -6.536858412        -1.788798379        0.5416039587    
HH        -6.948395399        -1.174062741         1.344070079    
HH        -6.703324135        -2.840327536        0.7805347656    
HH        -7.051368002        -1.551574408       -0.3912487909    
    45
Energy=    -68.6077611298762    
HH        -1.270065760        -5.142618818         5.413184073    
CH       -0.2849395150        -4.839934877         5.059401614    
HH        0.4386227068        -5.620732996         5.292553822    
HH        0.7035874666E-02    -3.915842123         5.557448531    
C        -0.3352272965        -4.611908807         3.559037171    
O         0.3833142687        -5.263063838         2.801294502    
N         -1.177902884        -3.677222670         3.125472694    
H         -1.729522735        -3.175422184         3.808905935    
CA        -1.419472533        -3.334683343         1.711711643    
HA       -0.4596175894        -3.261477403         1.196882354    
CB        -2.237015901        -4.447936926         1.019938674    
HB        -1.755792728        -5.411657629         1.195687105    
HB        -2.239932572        -4.270968829       -0.5722302354E-01
OG        -3.584986096        -4.496669824         1.485479375    
HG        -4.027172571        -5.288043893         1.106011692    
C         -2.120711146        -1.966946828         1.557433917    
O         -2.503718074        -1.326778808         2.544047358    
N         -2.318979285        -1.511520498        0.3116881709    
H         -1.976381258        -2.061483451       -0.4657048812    
CA        -3.018521435       -0.2523317902       -0.8402908024E-02
HA        -2.713386768        0.5087177779        0.7123275317    
CB        -2.579630150        0.2203000242        -1.409979860    
HB        -3.146010358         1.115793293        -1.672480858    
HB        -2.811264414       -0.5547792723        -2.143290699    
CG        -1.081951283        0.5647508583        -1.479968583    
HG       -0.4877525745       -0.3251725587        -1.268210188    
HG       -0.8543111768         1.326051012       -0.7320849101    
CD       -0.7045342188         1.095185249        -2.869663468    
HD       -0.9322518857        0.3342602071        -3.619044603    
HD        -1.289678881         1.991886176        -3.084045311    
CE        0.7922919593         1.433602518        -2.916056813    
HE         1.009364144         2.179226953        -2.145005652    
HE         1.365540100        0.5318362000        -2.679878507    
NZ         1.200345658         1.954583481        -4.248453010    
HZ        0.6963600493         2.799416559        -4.481098953    
HZ         1.025730083         1.275208006        -4.976335008    
HZ         2.187588003         2.172845545        -4.263388300    
C         -4.562094737       -0.3408248408        0.1047984826    
O         -5.248672942        0.6733816588       -0.6216867387E-01
N         -5.111300859        -1.531107841        0.3865302184    
H         -4.471526571        -2.299672663        0.5322205413    
CH        -6.539362091        -1.812679693        0.5288150539    
HH        -6.738444782        -2.195159206         1.531129789    
HH        -6.838248420        -2.566222745       -0.2014894012    
HH        -7.138527951       -0.9144725566        0.3708137653    
    45
Energy=    -69.0150061279512    
HH        -1.286231544        -5.117321241         5.436538750    
CH       -0.2994210715        -4.813472740         5.088495161    
HH        0.4245910236        -5.591207715         5.330326922    
HH       -0.1358311265E-01    -3.886362966         5.584490746    
C        -0.3395367604        -4.592265053         3.586806195    
O         0.3862378974        -5.244770085         2.837162696    
N         -1.181661612        -3.661884349         3.143026085    
H         -1.739426885        -3.158461852         3.820253413    
CA        -1.413796216        -3.326107150         1.726070049    
HA       -0.4504423747        -3.252361599         1.217902980    
CB        -2.223181140        -4.444699896         1.033255902    
HB        -1.742176956        -5.406628974         1.219105063    
HB        -2.216277564        -4.274068760       -0.4490430827E-01
OG        -3.575470678        -4.492787216         1.486274837    
HG        -4.011523865        -5.289276879         1.110432557    
C         -2.117856384        -1.961104137         1.560872435    
O         -2.506566742        -1.316159115         2.542137100    
N         -2.312849945        -1.513865341        0.3116845134    
H         -1.965764784        -2.067528904       -0.4610387646    
CA        -3.018995452       -0.2612138428       -0.1886516521E-01
HA        -2.720859649        0.5065178133        0.6976875835    
CB        -2.579315784        0.2047267480        -1.422401674    
HB        -3.150495558         1.094949519        -1.692323391    
HB        -2.804249386       -0.5766488690        -2.151102557    
CG        -1.083593041        0.5578725654        -1.490765508    
HG       -0.4845497535       -0.3269650017        -1.271471007    
HG       -0.8626029034         1.325544762       -0.7474140391    
CD       -0.7057082941         1.081281184        -2.882995177    
HD       -0.9267775676        0.3139723401        -3.627844468    
HD        -1.295734096         1.972930796        -3.104935422    
CE        0.7891462585         1.428523967        -2.927720159    
HE        0.9996070923         2.180617321        -2.161131628    
HE         1.367245604        0.5318832186        -2.683972482    
NZ         1.197581869         1.943037456        -4.262510418    
HZ        0.6890822436         2.783194663        -4.502161348    
HZ         1.029059283         1.257738603        -4.986264183    
HZ         2.183512311         2.167223920        -4.276311165    
C         -4.562119397       -0.3596062649        0.9074195590E-01
O         -5.258648712        0.6455093184       -0.9008494292E-01
N         -5.106659194        -1.547979810        0.3845215713    
H         -4.471118687        -2.317487072        0.5436423834    
CH        -6.537377757        -1.807908359        0.5197196728    
HH        -6.699840518        -2.857549592        0.7694624630    
HH        -7.047885922        -1.583735475       -0.4185433602    
HH        -6.956480873        -1.186387332         1.312990537    
