    45
Energy=    -70.1327426416852    
HH       -0.8233821246        -6.383321142        0.1878672095    
CH        -1.322690157        -5.634160018       -0.4258263197    
HH        -1.859826080        -6.128436364        -1.234992315    
HH       -0.5775679823        -4.958688990       -0.8449807154    
C         -2.293650680        -4.845765301        0.4326647892    
O         -3.494123476        -4.820790644        0.1651019035    
N         -1.778119248        -4.176063983         1.461499426    
H        -0.7781689720        -4.212107751         1.614583838    
CA        -2.571434383        -3.390520868         2.426471543    
HA        -3.400994612        -4.006534756         2.777507376    
CB        -1.702333667        -3.053241349         3.650053176    
HB        -1.442425034        -3.983580687         4.159075764    
HB        -2.279299985        -2.436433724         4.342046886    
OG       -0.5031719413        -2.372446855         3.281831338    
HG        0.1936596719E-01    -2.183365090         4.092350114    
C         -3.201429846        -2.110168867         1.836647964    
O         -4.111680053        -1.529606282         2.436223322    
N         -2.775752651        -1.691673466        0.6363436088    
H         -2.008809766        -2.197763123        0.2145501023    
CA        -3.359523303       -0.5722521719       -0.1221524103    
HA        -3.675747901        0.2022696208        0.5789232242    
CB        -2.274932562        0.2970630336E-01    -1.038823494    
HB        -2.725316098        0.8194137255        -1.643142705    
HB        -1.900417752       -0.7430137020        -1.713269245    
CG        -1.101260328        0.6367137709       -0.2509803255    
HG       -0.6019608444       -0.1424720480        0.3266809737    
HG        -1.483986612         1.393544310        0.4356574356    
CD       -0.8088111613E-01     1.284128785        -1.196672636    
HD        0.3018704189        0.5277179412        -1.884962930    
HD       -0.5716584129         2.072465490        -1.771178363    
CE         1.079917916         1.881465592       -0.3888109366    
HE        0.6785301609         2.619879571        0.3120325383    
HE         1.548556464         1.084797711        0.1970695398    
NZ         2.093936899         2.522326577        -1.268716424    
HZ         1.687579759         3.274872942        -1.807638375    
HZ         2.492796269         1.854575784        -1.914380445    
HZ         2.851255175         2.910749260       -0.7227182013    
C         -4.625419756       -0.9623229127       -0.9242206120    
O         -5.295202437       -0.8621923380E-01    -1.482486826    
N         -4.967231311        -2.256757476       -0.9847468364    
H         -4.372508155        -2.916047227       -0.4983834006    
CH        -6.127732898        -2.787460644        -1.694293225    
HH        -7.044035267        -2.358772353        -1.284697494    
HH        -6.163255275        -3.872257780        -1.582493826    
HH        -6.060594939        -2.542673971        -2.755773609    
    45
Energy=    -64.7201900900162    
HH         1.559395464        -4.288259777         2.655592721    
CH         1.372535264        -3.400368854         2.052299344    
HH         2.143484762        -3.313886533         1.287009871    
HH         1.397821629        -2.519339090         2.692899380    
C         0.6386286912E-02    -3.511266706         1.400096045    
O        -0.1087433017        -3.493169335        0.1754269870    
N         -1.038518239        -3.625750451         2.215769032    
H        -0.8791830703        -3.639332666         3.214902756    
CA        -2.439150364        -3.729528559         1.779894601    
HA        -2.478018689        -4.251878171        0.8220170331    
CB        -3.235935090        -4.599771344         2.775046484    
HB        -2.962351274        -5.643544326         2.607131781    
HB        -4.303321297        -4.495691370         2.568584112    
OG        -2.969072184        -4.279869626         4.142732517    
HG        -3.509754243        -4.863661301         4.719449041    
C         -3.070759225        -2.336996684         1.556524174    
O         -3.624658507        -1.712133911         2.467254627    
N         -2.989499329        -1.833132013        0.3165430316    
H         -2.485476113        -2.365745515       -0.3819095145    
CA        -3.451427375       -0.4840394790       -0.6662165304E-01
HA        -3.307506084        0.1899053958        0.7799556060    
CB        -2.576022957        0.2948256068E-01    -1.228265600    
HB        -2.962252368        0.9950612536        -1.560258365    
HB        -2.639179354       -0.6681613822        -2.065810855    
CG        -1.103708284        0.2158271749       -0.8229361655    
HG       -0.6799272447       -0.7418132373       -0.5195661322    
HG        -1.048680219        0.9069820925        0.1967200939E-01
CD       -0.2782690717        0.7755671702        -1.988930701    
HD       -0.3370506375        0.8675398679E-01    -2.834199091    
HD       -0.6873885026         1.742653213        -2.288525456    
CE         1.186826465        0.9445016055        -1.562409084    
HE         1.227929943         1.617674884       -0.7005679338    
HE         1.576229467       -0.2810004332E-01    -1.246055807    
NZ         2.024619272         1.487572090        -2.665361204    
HZ         1.694193216         2.395418753        -2.962984776    
HZ         2.016668532        0.8729380907        -3.467912817    
HZ         2.985879280         1.593295067        -2.369769786    
C         -4.957562761       -0.4001914635       -0.4140091890    
O         -5.490757155        0.7013707573       -0.5874454735    
N         -5.650763314        -1.541953612       -0.5089098328    
H         -5.140907624        -2.398629035       -0.3522018971    
CH        -7.074952035        -1.637937243       -0.8215990153    
HH        -7.659379615        -1.110019548       -0.6591930758E-01
HH        -7.381574520        -2.685021214       -0.8379750705    
HH        -7.272936130        -1.196103001        -1.799816025    
    45
Energy=    -69.0150061279590    
HH        -1.278936496        -5.160161366         5.405930926    
CH       -0.2923963208        -4.857017592         5.056509274    
HH        0.4298326810        -5.639060022         5.289624501    
HH       -0.1507897604E-02    -3.934734170         5.558529906    
C        -0.3373781658        -4.624125068         3.556726102    
O         0.3833278107        -5.273319161         2.799357649    
N         -1.177948622        -3.687483985         3.123288577    
H         -1.731432781        -3.187384242         3.806464025    
CA        -1.414234298        -3.340021519         1.709840270    
HA       -0.4525436400        -3.265661160         1.198621710    
CB        -2.230061786        -4.450476616         1.011513632    
HB        -1.751683022        -5.415445903         1.188150338    
HB        -2.226611804        -4.271578439       -0.6532229808E-01
OG        -3.580801327        -4.497425898         1.469251547    
HG        -4.021003477        -5.289504440         1.088950044    
C         -2.114199192        -1.971389019         1.557792807    
O         -2.497002809        -1.332689090         2.545443535    
N         -2.312331309        -1.513886864        0.3128225513    
H         -1.970055977        -2.062771046       -0.4654360609    
CA        -3.015388400       -0.2563222027       -0.5426095988E-02
HA        -2.711923349        0.5048491714        0.7158725931    
CB        -2.579369947        0.2188990031        -1.406991758    
HB        -3.148485243         1.113119842        -1.667908453    
HB        -2.809726213       -0.5560726341        -2.140819331    
CG        -1.082705454        0.5674452311        -1.478287002    
HG       -0.4858982129       -0.3210962452        -1.268059454    
HG       -0.8562849729         1.328614696       -0.7298997637    
CD       -0.7082405086         1.100256678        -2.867871424    
HD       -0.9347440155        0.3394621672        -3.617753301    
HD        -1.296017152         1.995599220        -3.080726531    
CE        0.7876239217         1.442721864        -2.915570418    
HE         1.003548101         2.188170328        -2.144026844    
HE         1.363538851        0.5422613306        -2.680902061    
NZ         1.192824051         1.966092269        -4.247901114    
HZ        0.6863285462         2.809801803        -4.479169562    
HZ         1.019228490         1.286962943        -4.976256682    
HZ         2.179462705         2.187007175        -4.263701023    
C         -4.558420620       -0.3502792520        0.1092470832    
O         -5.252153643        0.6585733618       -0.6122194503E-01
N         -5.105948943        -1.539009762        0.3959424749    
H         -4.472473059        -2.311886895        0.5467464383    
CH        -6.537038200        -1.795078301        0.5345405784    
HH        -6.951019121        -1.178250432         1.334139006    
HH        -6.702181251        -2.846048593        0.7768245998    
HH        -7.050284522        -1.561948565       -0.4000386441    
