    52
Energy=    -12.9478115654519    
HH        0.1023983752         4.260247954        0.6822345497    
CH       -0.7650293346         4.310963724         1.338083941    
HH       -0.4458330838         4.523142516         2.357167823    
HH        -1.433108017         5.096408434        0.9907141365    
C         -1.505040257         2.994683569         1.314500735    
O         -1.944571818         2.512054286         2.351995804    
N         -1.632098100         2.392960259        0.1355966782    
H         -1.120171872         2.779827999       -0.6476512285    
CA        -2.424602454         1.182916476       -0.9365752930E-01
HA        -3.304754322         1.234907131        0.5497899511    
CB        -2.932794924         1.201627001        -1.542093117    
HB        -3.554295878        0.3242928872        -1.725718005    
HB        -3.529435213         2.098382428        -1.713356171    
HB        -2.093030351         1.194724477        -2.234576049    
C         -1.676783921       -0.1095614305        0.3071615348    
O         -1.438714880       -0.9884559672       -0.5217535952    
N         -1.296451458       -0.2119829106         1.585967652    
H         -1.510547992        0.5875031873         2.174426103    
CA       -0.6127436814        -1.344766882         2.226984269    
HA       -0.2581008270       -0.9801258403         3.192304813    
CB        -1.628939775        -2.454766654         2.539825267    
HB        -2.424265755        -2.056939522         3.171564406    
HB        -2.068521270        -2.839865204         1.618821755    
HB        -1.132800181        -3.268516869         3.070421113    
C         0.6605780655        -1.829246695         1.498863779    
O          1.752886114        -1.360529350         1.807605441    
N         0.5355514973        -2.727768686        0.5152889802    
H        -0.3983333649        -3.008302494        0.2566191452    
CA         1.643973374        -3.137463637       -0.3546526399    
HA         2.471831713        -3.481135850        0.2683598445    
CB         1.164691159        -4.309787545        -1.218911783    
HB         1.985423094        -4.653180954        -1.850576497    
HB        0.3356600556        -3.994489036        -1.854317391    
HB        0.8423136546        -5.134273681       -0.5818737357    
C          2.176846962        -1.974939512        -1.220873294    
O          3.355916362        -1.947645171        -1.559212083    
N          1.326106863       -0.9868119692        -1.517820974    
H         0.3606926583        -1.103759612        -1.231443611    
CA         1.698304793        0.3184896496        -2.065579843    
HA         2.757603118        0.3005273016        -2.327132421    
CB        0.9177778992        0.5507594570        -3.366172027    
HB       -0.1519935159        0.5431889334        -3.167315761    
HB         1.197197154         1.513221393        -3.796522088    
HB         1.154208354       -0.2376217784        -4.081707222    
C          1.542110650         1.430038520        -1.001229216    
O         0.9637272165         2.487752363        -1.257859933    
N          2.005867657         1.155089505        0.2259928438    
H          2.400882250        0.2343010998        0.3803521332    
CH         1.983880756         2.059589691         1.371948033    
HH         2.144041945         3.088136923         1.043947631    
HH         2.776655768         1.783269251         2.069119268    
HH         1.025834638         1.982930833         1.886349183    
    52
Energy=    -12.2424254041524    
HH       -0.8568472413         4.866529504        0.7026874624    
CH       -0.9063686661         4.335762266         1.652218753    
HH        0.9773647819E-01     4.161734006         2.029158794    
HH        -1.465377315         4.932746146         2.371113753    
C         -1.611446249         3.011670450         1.471304424    
O         -2.184689036         2.487033775         2.418519584    
N         -1.569381504         2.451578708        0.2652587929    
H        -0.9700752095         2.865398238       -0.4397725666    
CA        -2.335175974         1.262692812       -0.1181281018    
HA        -3.283034838         1.287256862        0.4224743151    
CB        -2.674452489         1.370367194        -1.610949750    
HB        -3.247800836        0.4975160345        -1.925601609    
HB        -3.269539026         2.266522112        -1.790073259    
HB        -1.759489696         1.431515285        -2.197129770    
C         -1.645448139       -0.5759056290E-01    0.2958157968    
O         -1.406224999       -0.9378119020       -0.5316958403    
N         -1.310502765       -0.1828589967         1.585237700    
H         -1.549922572        0.6019340193         2.182815975    
CA       -0.6465443106        -1.329528288         2.220365733    
HA       -0.3097269274       -0.9849193175         3.199244958    
CB        -1.673474145        -2.441083555         2.491300157    
HB        -2.478796189        -2.051781644         3.115688569    
HB        -2.098072700        -2.804671621         1.554632072    
HB        -1.191679212        -3.267863873         3.014884562    
C         0.6401058962        -1.798050963         1.504613096    
O          1.717907391        -1.286367244         1.795972444    
N         0.5415193638        -2.733252402        0.5522761471    
H        -0.3820538642        -3.056150939        0.3083347974    
CA         1.666195002        -3.155894622       -0.2907144464    
HA         2.495054812        -3.454792319        0.3536930372    
CB         1.219796958        -4.375262794        -1.106174034    
HB         2.053704758        -4.728880828        -1.714532931    
HB        0.3909077535        -4.106014872        -1.762567845    
HB        0.9083350582        -5.177454477       -0.4360933835    
C          2.185285839        -2.022908244        -1.203325383    
O          3.367441765        -1.986572343        -1.530038551    
N          1.318813554        -1.067497692        -1.554926192    
H         0.3545617353        -1.183760987        -1.263700056    
CA         1.668485300        0.2181883574        -2.159966829    
HA         2.730157858        0.2117403382        -2.412198171    
CB        0.8951137686        0.3715185510        -3.476701413    
HB       -0.1758123390        0.3020964288        -3.295210765    
HB         1.124259173         1.336862387        -3.929638564    
HB         1.188815945       -0.4204496178        -4.166515786    
C          1.481144402         1.368723538        -1.143041530    
O         0.8558765078         2.391973074        -1.429145071    
N          1.977160318         1.163306263        0.8478331011E-01
H          2.407568366        0.2643528523        0.2689034979    
CH         1.934069668         2.111245739         1.193326336    
HH         1.895824436         3.134414425        0.8148320527    
HH         2.828408367         1.994454454         1.807576052    
HH         1.057685668         1.912286287         1.810810278    
    52
Energy=    -12.9478115654497    
HH        -1.436559366         5.102750148        0.9523298705    
CH       -0.7749254608         4.317279744         1.311767090    
HH        0.1014089606         4.262495568        0.6682004448    
HH       -0.4694668542         4.532544929         2.334407778    
C         -1.517156679         3.002360653         1.282674279    
O         -1.971990069         2.524362910         2.315708538    
N         -1.629054825         2.396599783        0.1043016756    
H         -1.105549486         2.779621368       -0.6731615183    
CA        -2.420711512         1.187269826       -0.1315528158    
HA        -3.309594669         1.243308808        0.4994316198    
CB        -2.908734947         1.201696335        -1.586956651    
HB        -3.529375421        0.3249074687        -1.776015812    
HB        -3.501157185         2.098978672        -1.769716776    
HB        -2.059465514         1.190645010        -2.267694554    
C         -1.681096223       -0.1051897447        0.2842657685    
O         -1.433307276       -0.9875544799       -0.5380880928    
N         -1.318735225       -0.2036957193         1.568586249    
H         -1.539378145        0.5983399312         2.151127418    
CA       -0.6462367279        -1.335464435         2.223111658    
HA       -0.3042867686       -0.9680025627         3.191935886    
CB        -1.668879919        -2.442345071         2.525832101    
HB        -2.472094910        -2.040679938         3.145037221    
HB        -2.096415379        -2.829938213         1.600215964    
HB        -1.181765248        -3.255120589         3.066194130    
C         0.6360909785        -1.825059501         1.514478657    
O          1.724944158        -1.357341865         1.836648190    
N         0.5229252481        -2.726909900        0.5325152294    
H        -0.4078399793        -3.006570782        0.2619304624    
CA         1.642484363        -3.141916869       -0.3204818586    
HA         2.460939642        -3.484925543        0.3151914656    
CB         1.172898464        -4.316445423        -1.187067346    
HB         2.001624180        -4.663726326        -1.806042233    
HB        0.3533858372        -4.001853053        -1.835046284    
HB        0.8400793714        -5.137981400       -0.5515894122    
C          2.189629336        -1.983588040        -1.183419593    
O          3.373328284        -1.959812556        -1.505466634    
N          1.345056573       -0.9948986525        -1.495706027    
H         0.3755338198        -1.108930271        -1.222327620    
CA         1.727410546        0.3076767861        -2.042959228    
HA         2.790195530        0.2867077659        -2.289725758    
CB        0.9654547514        0.5367268378        -3.355083824    
HB       -0.1069838563        0.5319553615        -3.171060257    
HB         1.252728908         1.497072694        -3.784989246    
HB         1.210213479       -0.2547098105        -4.064418828    
C          1.558687376         1.423391811       -0.9848986226    
O         0.9860241785         2.481285136        -1.253345772    
N          2.004836583         1.152010493        0.2496233830    
H          2.395839413        0.2310251063        0.4127715022    
CH         1.968764136         2.060715164         1.391889512    
HH         2.135504196         3.087749527         1.062430186    
HH         2.751245620         1.785395728         2.100983916    
HH         1.003527610         1.987787181         1.893225170    
