    52
Energy=    -10.2303552061121    
HH       -0.4623643923         4.115764486         2.448907125    
CH       -0.3820902389         3.106968523         2.848550060    
HH        0.5810972210         2.678824360         2.574658889    
HH       -0.4791609288         3.130491896         3.933023335    
C         -1.486675048         2.254913381         2.272091165    
O         -2.339093350         1.761263942         3.001742655    
N         -1.460001345         2.047857402        0.9591343663    
H        -0.6612029349         2.395125497        0.4391102873    
CA        -2.405009000         1.196734176        0.2375671093    
HA        -3.393693098         1.322866841        0.6824603803    
CB        -2.489717068         1.683263874        -1.216403997    
HB        -3.203950710         1.070187234        -1.767284819    
HB        -2.821277844         2.721867227        -1.239986801    
HB        -1.513163640         1.608175636        -1.693924421    
C         -2.027907793       -0.2922236366        0.3886797878    
O         -1.628914715       -0.9457630753       -0.5766536241    
N         -2.115702556       -0.7966711663         1.626507723    
H         -2.408495531       -0.1342399147         2.338439263    
CA        -1.732571930        -2.131771998         2.115611824    
HA        -1.869513202        -2.109865699         3.198008433    
CB        -2.719144653        -3.180665288         1.581570700    
HB        -3.739218644        -2.897801056         1.844004145    
HB        -2.636792606        -3.262001808        0.4970628421    
HB        -2.495831408        -4.150549976         2.028008842    
C        -0.2530997413        -2.527464436         1.909717988    
O         0.4357787875        -2.826893440         2.879879459    
N         0.2374381584        -2.506522055        0.6696164367    
H        -0.4134475894        -2.257965272       -0.6559197600E-01
CA         1.627625977        -2.776253514        0.2915478111    
HA         2.250251735        -2.754701736         1.187771179    
CB         1.692058208        -4.193139880       -0.2947620609    
HB         2.726506093        -4.443735398       -0.5339332585    
HB         1.091726397        -4.250427846        -1.203481287    
HB         1.317021168        -4.912241516        0.4347611426    
C          2.219788014        -1.723854890       -0.6743700932    
O          3.391749452        -1.816596917        -1.032223230    
N          1.434352766       -0.7258543851        -1.101147550    
H         0.4797160548       -0.6888978808       -0.7705961281    
CA         1.858433536        0.3273702312        -2.026832575    
HA         2.900802201        0.1606482467        -2.302842927    
CB         1.024521371        0.2109099166        -3.309120690    
HB       -0.3321477781E-01    0.3460384292        -3.080977077    
HB         1.336562100        0.9698300784        -4.027019135    
HB         1.169196853       -0.7753250428        -3.752538680    
C          1.781373631         1.733964341        -1.400253201    
O         0.9637889296         1.996007111       -0.5169351618    
N          2.622181313         2.656021562        -1.885249135    
H          3.266889587         2.371082888        -2.606522135    
CH         2.681389446         4.040324433        -1.418915921    
HH         3.455599218         4.587801623        -1.958598219    
HH         2.907703264         4.060130333       -0.3508194687    
HH         1.717703164         4.526994157        -1.581448778    
    52
Energy=     7.11146647221547    
HH        0.4844068568         3.561531208         2.146388072    
CH        0.2829263463         2.604342648         2.622005418    
HH        0.9234323822         1.836076239         2.191015292    
HH        0.4648413760         2.674830201         3.693108989    
C         -1.159332931         2.223676570         2.390976047    
O         -1.891436654         1.967881429         3.337277217    
N         -1.564378349         2.143304426         1.126614247    
H        -0.8616683999         2.263157170        0.4053497849    
CA        -2.915648746         1.747822890        0.7032225980    
HA        -3.624058094         2.103408835         1.453269534    
CB        -3.229809919         2.472317893       -0.6140900814    
HB        -4.258782141         2.265540062       -0.9114409667    
HB        -3.111381064         3.548464025       -0.4838047050    
HB        -2.556016791         2.124331165        -1.398284332    
C         -3.102114836        0.2110087696        0.6210281867    
O         -3.932690098       -0.2688455007       -0.1464546697    
N         -2.271065700       -0.5210823027         1.376394899    
H         -1.707269595        0.3631254610E-01     2.005871048    
CA        -1.843132509        -1.929329708         1.315149745    
HA        -2.191798190        -2.435172739         2.215966008    
CB        -2.411535270        -2.685122889        0.9500330402E-01
HB        -3.500713434        -2.705513547        0.1474212750    
HB        -2.101888832        -2.197940542       -0.8311261432    
HB        -2.072033148        -3.720406774        0.9293687199E-01
C        -0.2948440570        -1.925368799         1.354017647    
O         0.3105970440       -0.9658991680         1.832257513    
N         0.3737958930        -2.946623034        0.8096038774    
H        -0.1576151165        -3.705440282        0.4149719194    
CA         1.834793568        -2.990621740        0.6522760519    
HA         2.279979065        -2.631078762         1.581712162    
CB         2.251278428        -4.459491165        0.4830662497    
HB         3.339807199        -4.531762183        0.4630919101    
HB         1.855027460        -4.854794774       -0.4532327071    
HB         1.877761282        -5.053330004         1.318114211    
C          2.374591620        -2.060518079       -0.4703217170    
O          3.345057462        -2.393917985        -1.146771200    
N          1.726863169       -0.9140677457       -0.7064166637    
H         0.9996285678       -0.6435673111       -0.5505119852E-01
CA         2.055176947        0.4586149725E-01    -1.760048122    
HA         3.134197820        0.3569256087E-01    -1.923565444    
CB         1.358564212       -0.3890672201        -3.057365183    
HB        0.2766510871       -0.3957094492        -2.914774841    
HB         1.608393331        0.3017106918        -3.863069179    
HB         1.690258598        -1.389997211        -3.337692902    
C          1.640853123         1.478019443        -1.368905507    
O         0.6781020224         1.676254624       -0.6262127779    
N          2.351311070         2.481883377        -1.897511477    
H          3.119194743         2.246276417        -2.507285867    
CH         2.084072097         3.896820735        -1.644113730    
HH         2.794624625         4.519417943        -2.189916968    
HH         2.172889219         4.104027547       -0.5757214219    
HH         1.070137161         4.144698004        -1.964931675    
    52
Energy=    -1.04517047970915    
HH        0.4295257705         4.198213342         1.431007233    
CH        0.3053469107         3.423440683         2.182788675    
HH        0.9100865001         2.553082159         1.932912226    
HH        0.6031198629         3.805986179         3.158076939    
C         -1.149984134         3.024633307         2.240269368    
O         -1.829220703         3.338790419         3.207394789    
N         -1.616883773         2.331602871         1.203321852    
H        -0.9674052031         2.112963514        0.4577626031    
CA        -2.988918120         1.809646582         1.101480075    
HA        -3.563989456         2.130374978         1.972100700    
CB        -3.638394645         2.428023292       -0.1430037320    
HB        -4.674096442         2.093232699       -0.2170536336    
HB        -3.624941375         3.515820424       -0.6458052413E-01
HB        -3.098705499         2.120315044        -1.039414142    
C         -3.056940173        0.2667761136         1.078839425    
O         -4.130226625       -0.3154630564         1.210669909    
N         -1.911156696       -0.3930123905        0.8996718182    
H         -1.069633493        0.1646810095        0.8395587510    
CA        -1.722843516        -1.843153734        0.9305118676    
HA        -2.347466839        -2.283190538         1.709923569    
CB        -2.148871039        -2.399486354       -0.4422764194    
HB        -3.183738629        -2.119611471       -0.6466762137    
HB        -1.511610431        -1.993025767        -1.229374977    
HB        -2.089615820        -3.487913644       -0.4453528926    
C        -0.2401467392        -2.121354849         1.264794002    
O         0.4119985187        -1.300448616         1.906743903    
N         0.3562129118        -3.187373554        0.7199790289    
H        -0.2118844747        -3.837493351        0.2015741013    
CA         1.817965607        -3.342061415        0.6281106903    
HA         2.239223642        -3.135821839         1.613792065    
CB         2.122204510        -4.808437980        0.2891415228    
HB         3.200857946        -4.972157035        0.3068387013    
HB         1.745705640        -5.048607436       -0.7059710799    
HB         1.657930313        -5.466326567         1.024816383    
C          2.491810880        -2.337734809       -0.3535351284    
O          3.574920556        -2.593049564       -0.8731007619    
N          1.828581144        -1.213598912       -0.6444903303    
H          1.009499071        -1.014987807       -0.8867583161E-01
CA         2.246644499       -0.1431064806        -1.542065839    
HA         3.325216099       -0.2577149827E-02    -1.451545195    
CB         1.913193164       -0.5488227176        -2.985377498    
HB        0.8381253384       -0.7020080385        -3.091326127    
HB         2.233049939        0.2319785567        -3.675812447    
HB         2.433940012        -1.473644855        -3.238898882    
C          1.540705888         1.177427714        -1.163760223    
O         0.4838521262         1.171034950       -0.5217775505    
N          2.114996668         2.309057363        -1.590923983    
H          2.972451512         2.226415951        -2.116010884    
CH         1.591789812         3.654270529        -1.355326400    
HH         1.904062536         4.322535691        -2.159549587    
HH         1.973392624         4.037563918       -0.4076017379    
HH        0.5002637246         3.636602641        -1.318597577    
