    52
Energy=    -12.9478115654516    
HH       -0.1403683133E-01     4.260758709        0.6865720715    
CH       -0.8495825883         4.280477086         1.384150613    
HH       -0.4885575736         4.503082572         2.386919667    
HH        -1.561030603         5.042151373         1.071720939    
C         -1.543173453         2.938982483         1.393623385    
O         -1.914194921         2.440493587         2.450206049    
N         -1.706546781         2.333942667        0.2209062867    
H         -1.247459252         2.739108645       -0.5855002890    
CA        -2.466329848         1.096907526        0.2777330701E-01
HA        -3.315228173         1.117460386        0.7135897623    
CB        -3.045124154         1.098681211        -1.394045716    
HB        -3.643667251        0.2001380066        -1.549168082    
HB        -3.680556593         1.973994739        -1.533805526    
HB        -2.240522539         1.121799537        -2.126757517    
C         -1.654863552       -0.1687145908        0.3884819306    
O         -1.426914127        -1.038134872       -0.4531713234    
N         -1.209056516       -0.2585350260         1.646923983    
H         -1.422052673        0.5325294317         2.247047600    
CA       -0.4554413330        -1.366978129         2.251056569    
HA       -0.6701928052E-01   -0.9907216069         3.198757856    
CB        -1.415500899        -2.512264310         2.610540481    
HB        -2.192446719        -2.143095936         3.281341560    
HB        -1.885820581        -2.911984644         1.711205557    
HB       -0.8657210601        -3.308399870         3.114312416    
C         0.7969603084        -1.805857607         1.460421809    
O          1.885928823        -1.299190058         1.716526883    
N         0.6555955863        -2.707570357        0.4819930033    
H        -0.2793968929        -3.020628238        0.2686058787    
CA         1.733831250        -3.077421189       -0.4420554983    
HA         2.602739190        -3.392156023        0.1389312055    
CB         1.254308190        -4.265313989        -1.284650878    
HB         2.054705629        -4.579188282        -1.956489489    
HB        0.3846198220        -3.978968307        -1.878026221    
HB        0.9926417347        -5.101058521       -0.6345863752    
C          2.182525881        -1.896287308        -1.330509601    
O          3.341942413        -1.827286034        -1.726002835    
N          1.284096417       -0.9385183229        -1.583166977    
H         0.3385537258        -1.089562891        -1.250228705    
CA         1.582973772        0.3794379495        -2.145347536    
HA         2.628183100        0.3989441083        -2.458400743    
CB        0.7320723869        0.5849551135        -3.405681237    
HB       -0.3257617710        0.5396050136        -3.154798245    
HB        0.9561252472         1.556940724        -3.846876843    
HB        0.9607544009       -0.1941410291        -4.133794339    
C          1.440098378         1.484093880        -1.071987552    
O         0.8130595513         2.520965220        -1.297521214    
N          1.972714370         1.224823488        0.1304435591    
H          2.406904306        0.3184066054        0.2631166064    
CH         1.975067275         2.127228548         1.278257516    
HH         2.810218378         1.878519678         1.935189378    
HH         1.046620719         2.016555727         1.838682357    
HH         2.082765010         3.160993123        0.9452751140    
    52
Energy=    -11.9677522874544    
HH       -0.1667472038         4.370408508        0.5681245296    
CH       -0.9425693109         4.328877529         1.331449155    
HH       -0.5106003656         4.538024990         2.308723780    
HH        -1.710020267         5.065794831         1.103775215    
C         -1.576488178         2.957660579         1.354679242    
O         -1.927147876         2.455471573         2.416452673    
N         -1.725012316         2.338101932        0.1872669527    
H         -1.282716879         2.749965962       -0.6240589901    
CA        -2.472478177         1.091870585        0.4182463400E-02
HA        -3.318469845         1.109400214        0.6937082173    
CB        -3.060645805         1.079440654        -1.413898140    
HB        -3.656441336        0.1770908229        -1.557176982    
HB        -3.701095225         1.950607542        -1.556685184    
HB        -2.261719833         1.099135107        -2.152685778    
C         -1.652149250       -0.1662297340        0.3703885863    
O         -1.429433704        -1.042970476       -0.4650408593    
N         -1.199299608       -0.2436691241         1.627140117    
H         -1.406491000        0.5556155885         2.218514184    
CA       -0.4593148561        -1.352984583         2.247245848    
HA       -0.6773888226E-01   -0.9678092658         3.190054856    
CB        -1.434269722        -2.480409834         2.622123966    
HB        -2.208430848        -2.091377221         3.284873525    
HB        -1.906654229        -2.888823269         1.727805135    
HB       -0.8954004473        -3.275102489         3.139777273    
C         0.7882745358        -1.823525899         1.467473140    
O          1.889739390        -1.356931500         1.744817352    
N         0.6307557145        -2.708480091        0.4765275340    
H        -0.3119085097        -2.985341678        0.2461822916    
CA         1.705728611        -3.091946021       -0.4453649670    
HA         2.565746377        -3.428997047        0.1363785408    
CB         1.206865079        -4.261910870        -1.301669854    
HB         2.003861262        -4.584693868        -1.973304830    
HB        0.3452591896        -3.953064914        -1.895555996    
HB        0.9262943829        -5.098650555       -0.6608262924    
C          2.179456960        -1.910057094        -1.319254395    
O          3.346206504        -1.847529447        -1.693560259    
N          1.293787672       -0.9424619820        -1.580012513    
H         0.3419339922        -1.086636142        -1.262484063    
CA         1.616726363        0.3787003759        -2.121407985    
HA         2.659826090        0.3814410924        -2.442037240    
CB        0.7619857826        0.6250167636        -3.371641849    
HB       -0.2943835833        0.6039263783        -3.112369453    
HB         1.007893817         1.597569325        -3.799766211    
HB        0.9645037844       -0.1485386003        -4.113282085    
C          1.504628627         1.466680400        -1.027595888    
O         0.8872813891         2.514680225        -1.227471288    
N          2.052424689         1.176570514        0.1612523585    
H          2.477727245        0.2625476030        0.2651740162    
CH         2.093764991         2.050904651         1.330568634    
HH         3.071906198         2.529676713         1.395885031    
HH         1.925659183         1.461435047         2.233726239    
HH         1.329389329         2.821526196         1.262880847    
    52
Energy=    -12.9478115654490    
HH        0.2419884509E-01     4.259568962        0.6936357171    
CH       -0.8188248084         4.287197697         1.381886482    
HH       -0.4666445856         4.504305406         2.388996891    
HH        -1.518492282         5.056999106         1.062841790    
C         -1.526889838         2.953252639         1.381337909    
O         -1.915036797         2.457123061         2.432866517    
N         -1.683664628         2.351869999        0.2058422680    
H         -1.211261575         2.753335498       -0.5947032898    
CA        -2.454525904         1.123413562        0.2140809711E-02
HA        -3.310759876         1.152039350        0.6784831362    
CB        -3.017352376         1.133685941        -1.426038519    
HB        -3.623770992        0.2419010589        -1.589356837    
HB        -3.641717704         2.016026024        -1.571382524    
HB        -2.204415577         1.149281099        -2.149692688    
C         -1.660820377       -0.1514616833        0.3697170091    
O         -1.432864991        -1.021956517       -0.4708232010    
N         -1.230089189       -0.2480817618         1.632896818    
H         -1.441239747        0.5442832518         2.231955930    
CA       -0.4952533324        -1.365548929         2.243504356    
HA       -0.1134087236       -0.9950082064         3.196117950    
CB        -1.471550528        -2.500976065         2.590307608    
HB        -2.251917421        -2.124508111         3.253031967    
HB        -1.936075773        -2.894172127         1.685104095    
HB       -0.9360400985        -3.303795484         3.098820559    
C         0.7610993822        -1.816664864         1.466136564    
O          1.852534968        -1.322184936         1.735231720    
N         0.6209646916        -2.715248020        0.4846563645    
H        -0.3149046802        -3.017859178        0.2603234775    
CA         1.705406033        -3.095248368       -0.4279411129    
HA         2.564330073        -3.420262000        0.1621607458    
CB         1.222553599        -4.276560468        -1.277855167    
HB         2.026976500        -4.597989001        -1.941261336    
HB        0.3626817813        -3.979906218        -1.880402029    
HB        0.9446549161        -5.110461628       -0.6321746821    
C          2.176693665        -1.917618968        -1.309321725    
O          3.341130866        -1.860507057        -1.691744270    
N          1.291512363       -0.9498110801        -1.570347805    
H         0.3407379791        -1.091170402        -1.248231450    
CA         1.610830829        0.3657323026        -2.126912896    
HA         2.659620714        0.3744540025        -2.428258293    
CB        0.7763216588        0.5824168487        -3.396304001    
HB       -0.2846756202        0.5480875689        -3.157309663    
HB         1.015746288         1.552625862        -3.833316115    
HB         1.004714533       -0.1979470505        -4.123149122    
C          1.467885683         1.470163521        -1.053330976    
O         0.8546118126         2.514097379        -1.284074449    
N          1.984214976         1.203255356        0.1545206756    
H          2.407105746        0.2919965182        0.2904814668    
CH         1.983470158         2.103762534         1.303826377    
HH         2.106010718         3.136831040        0.9738285632    
HH         2.808504472         1.845014924         1.969604864    
HH         1.047684070         2.002227610         1.853674121    
