    52
Energy=    -10.2303552061128    
HH       -0.4445986985         4.182669624         2.336247884    
CH       -0.3683331594         3.184785763         2.763142572    
HH        0.5929918437         2.745393438         2.500764026    
HH       -0.4649315823         3.238173679         3.846598537    
C         -1.476609624         2.321934044         2.210312918    
O         -2.330797356         1.851811572         2.953311037    
N         -1.451240862         2.079163082        0.9034625391    
H        -0.6512017099         2.408877519        0.3740054455    
CA        -2.399987900         1.212642198        0.2055154428    
HA        -3.387991450         1.354889721        0.6470472511    
CB        -2.483198009         1.659821027        -1.261122129    
HB        -3.200135675         1.034945408        -1.794969661    
HB        -2.810495439         2.698756323        -1.312847018    
HB        -1.507126498         1.567761818        -1.736653525    
C         -2.028957322       -0.2731989312        0.3969526026    
O         -1.632987501       -0.9543701658       -0.5503549105    
N         -2.118396638       -0.7434527723         1.648054186    
H         -2.408218423       -0.6071736350E-01     2.341786919    
CA        -1.740587425        -2.066333976         2.173174793    
HA        -1.877063103        -2.014454735         3.254608173    
CB        -2.731647459        -3.125282432         1.668069887    
HB        -3.750459404        -2.831192264         1.922957366    
HB        -2.650005710        -3.236401816        0.5861540461    
HB        -2.512167756        -4.083587014         2.140651220    
C        -0.2628253662        -2.473565085         1.977765318    
O         0.4251522206        -2.749350654         2.955545353    
N         0.2273654427        -2.488354216        0.7374378916    
H        -0.4227474727        -2.257192452       -0.4102109364E-02
CA         1.616301952        -2.773983951        0.3665145595    
HA         2.239320956        -2.730647554         1.261675387    
CB         1.674706757        -4.206534650       -0.1810848571    
HB         2.708033084        -4.467795839       -0.4135987144    
HB         1.073830476        -4.286025108        -1.087771014    
HB         1.296969124        -4.903993486        0.5678006505    
C          2.212450757        -1.750672821       -0.6277877422    
O          3.383897347        -1.857931679       -0.9832620505    
N          1.430976760       -0.7614135967        -1.081348232    
H         0.4766143216       -0.7115561647       -0.7517001685    
CA         1.859063065        0.2645088467        -2.035415647    
HA         2.900642283        0.8605611970E-01    -2.307036192    
CB         1.024236450        0.1166771391        -3.313870035    
HB       -0.3285650745E-01    0.2623107853        -3.089236320    
HB         1.339145889        0.8545147935        -4.052202650    
HB         1.164703963       -0.8818319697        -3.730353339    
C          1.788001482         1.687917684        -1.447279212    
O         0.9718056315         1.977234722       -0.5712187709    
N          2.632424500         2.592982989        -1.957352437    
H          3.275707318         2.285894551        -2.670764981    
CH         2.697482785         3.989192793        -1.528829008    
HH         3.473749729         4.518607683        -2.083372546    
HH         2.924244996         4.037087591       -0.4617183108    
HH         1.735748815         4.475229785        -1.704303827    
    52
Energy=    -10.0344162828023    
HH       -0.3558093978         4.197727036         1.916998396    
CH       -0.1912468394         3.216694409         2.358004568    
HH        0.7275875077         2.786744656         1.962325290    
HH       -0.1209356056         3.304801832         3.441162088    
C         -1.350994038         2.315425873         2.009536327    
O         -2.065149424         1.848216567         2.890048933    
N         -1.529452128         2.040577438        0.7211273613    
H        -0.8423872312         2.388302833        0.5981207212E-01
CA        -2.554200407         1.131340336        0.2126992316    
HA        -3.466366101         1.275378617        0.7946330451    
CB        -2.873638713         1.515393849        -1.238231065    
HB        -3.625332179        0.8361034671        -1.641776462    
HB        -3.259970540         2.534604319        -1.273175759    
HB        -1.973370845         1.456307858        -1.847586801    
C         -2.118619170       -0.3362282875        0.4039058292    
O         -1.718745552        -1.011168750       -0.5476690805    
N         -2.163291899       -0.7941481833         1.662261472    
H         -2.430271500       -0.1030809365         2.356447791    
CA        -1.727734011        -2.095441215         2.197920543    
HA        -1.863514138        -2.040711640         3.279296278    
CB        -2.671428680        -3.201443588         1.703341081    
HB        -3.702453329        -2.948963327         1.953603681    
HB        -2.582720707        -3.321323976        0.6229564812    
HB        -2.411447494        -4.144016041         2.186918354    
C        -0.2342875050        -2.436892600         2.000847268    
O         0.4565412987        -2.729120958         2.971766562    
N         0.2665045680        -2.368667175        0.7673010374    
H        -0.3927293426        -2.148586869        0.3207143498E-01
CA         1.678681408        -2.520010461        0.4091563417    
HA         2.290429380        -2.407869151         1.306424958    
CB         1.881082260        -3.941352226       -0.1315504685    
HB         2.934891201        -4.094743756       -0.3682821609    
HB         1.286395566        -4.088951905        -1.033828647    
HB         1.581504548        -4.669302660        0.6238078355    
C          2.171256227        -1.457779926       -0.5978630782    
O          3.377224779        -1.269854727       -0.7436628030    
N          1.270267875       -0.7442640269        -1.286681990    
H         0.2844391924       -0.8945272124        -1.117636121    
CA         1.639592131        0.3047114967        -2.236249954    
HA         2.626873207        0.7942122631E-01    -2.643142554    
CB        0.6587314782        0.2755604518        -3.414383627    
HB       -0.3578776444        0.4420507606        -3.061385621    
HB        0.9204902582         1.054965988        -4.130680945    
HB        0.7079594889       -0.6942984320        -3.910963946    
C          1.719385776         1.680872463        -1.547537612    
O         0.7280684700         2.175668027        -1.008666205    
N          2.900845867         2.308305041        -1.581574085    
H          3.678126181         1.819561490        -2.000398844    
CH         3.153637837         3.618798918       -0.9855217367    
HH         4.174834818         3.938549330        -1.198249559    
HH         3.013481355         3.564523998        0.9581683807E-01
HH         2.455141643         4.352139749        -1.393491372    
    52
Energy=    -12.9478115654509    
HH        -1.527456191         5.065992270         1.005630132    
CH       -0.8332911555         4.297702733         1.339971853    
HH        0.1937559971E-01     4.264319224        0.6639642410    
HH       -0.4951740722         4.521517173         2.350428174    
C         -1.542847998         2.964551061         1.338747819    
O         -1.946453665         2.476257513         2.388122352    
N         -1.683643458         2.355074734        0.1654001926    
H         -1.199461328         2.750383164       -0.6311619868    
CA        -2.452984569         1.126046031       -0.4058353392E-01
HA        -3.318690456         1.160356966        0.6233223866    
CB        -2.995486532         1.126867639        -1.476642820    
HB        -3.600577761        0.2346090089        -1.642280447    
HB        -3.616688063         2.008834878        -1.637028021    
HB        -2.172350332         1.136490130        -2.188779750    
C         -1.666074199       -0.1470639887        0.3471670860    
O         -1.427246160        -1.023701666       -0.4839167336    
N         -1.253415557       -0.2352504270         1.616979682    
H         -1.472107796        0.5615407269         2.207400089    
CA       -0.5286300424        -1.349181261         2.245789841    
HA       -0.1598981468       -0.9723530133         3.201099031    
CB        -1.511084031        -2.481085013         2.586673331    
HB        -2.300327612        -2.099118444         3.235595742    
HB        -1.963187249        -2.880145054         1.677754187    
HB       -0.9837852454        -3.280880194         3.108362439    
C         0.7380891799        -1.807114309         1.489517307    
O          1.826180163        -1.311928456         1.770592430    
N         0.6108302211        -2.712435289        0.5124851328    
H        -0.3221191854        -3.015609633        0.2770260858    
CA         1.707657131        -3.100021672       -0.3819392311    
HA         2.557742260        -3.421797343        0.2225607843    
CB         1.235516217        -4.286768569        -1.230298476    
HB         2.048887832        -4.613727886        -1.879947976    
HB        0.3846264461        -3.993438227        -1.847056055    
HB        0.9475062211        -5.115802002       -0.5827832874    
C          2.192784181        -1.929137025        -1.264795792    
O          3.362594522        -1.875974681        -1.631047480    
N          1.312534279       -0.9622378668        -1.545150576    
H         0.3571212297        -1.100300368        -1.235573468    
CA         1.641263283        0.3490085005        -2.106357850    
HA         2.694231068        0.3544773335        -2.392843942    
CB        0.8250970386        0.5576478589        -3.388954356    
HB       -0.2392227753        0.5261461772        -3.164804868    
HB         1.071838030         1.524496669        -3.829330936    
HB         1.062856251       -0.2280609701        -4.106984403    
C          1.484407232         1.461126090        -1.042698876    
O         0.8756972297         2.504069488        -1.289450769    
N          1.983239775         1.202174074        0.1742035292    
H          2.403086455        0.2914400579        0.3225508291    
CH         1.967255534         2.110752745         1.317027492    
HH         2.782459144         1.855810863         1.996248110    
HH         1.023646410         2.014101191         1.854240465    
HH         2.095680547         3.141339059        0.9815514908    
