    52
 Energy=    -1.04517047970915
HH            0.4295257705        4.1982133420        1.4310072330
CH            0.3053469107        3.4234406830        2.1827886750
HH            0.9100865001        2.5530821590        1.9329122260
HH            0.6031198629        3.8059861790        3.1580769390
C            -1.1499841340        3.0246333070        2.2402693680
O            -1.8292207030        3.3387904190        3.2073947890
N            -1.6168837730        2.3316028710        1.2033218520
H            -0.9674052031        2.1129635140        0.4577626031
CA           -2.9889181200        1.8096465820        1.1014800750
HA           -3.5639894560        2.1303749780        1.9721007000
CB           -3.6383946450        2.4280232920       -0.1430037320
HB           -4.6740964420        2.0932326990       -0.2170536336
HB           -3.6249413750        3.5158204240       -0.0645805241
HB           -3.0987054990        2.1203150440       -1.0394141420
C            -3.0569401730        0.2667761136        1.0788394250
O            -4.1302266250       -0.3154630564        1.2106699090
N            -1.9111566960       -0.3930123905        0.8996718182
H            -1.0696334930        0.1646810095        0.8395587510
CA           -1.7228435160       -1.8431537340        0.9305118676
HA           -2.3474668390       -2.2831905380        1.7099235690
CB           -2.1488710390       -2.3994863540       -0.4422764194
HB           -3.1837386290       -2.1196114710       -0.6466762137
HB           -1.5116104310       -1.9930257670       -1.2293749770
HB           -2.0896158200       -3.4879136440       -0.4453528926
C            -0.2401467392       -2.1213548490        1.2647940020
O             0.4119985187       -1.3004486160        1.9067439030
N             0.3562129118       -3.1873735540        0.7199790289
H            -0.2118844747       -3.8374933510        0.2015741013
CA            1.8179656070       -3.3420614150        0.6281106903
HA            2.2392236420       -3.1358218390        1.6137920650
CB            2.1222045100       -4.8084379800        0.2891415228
HB            3.2008579460       -4.9721570350        0.3068387013
HB            1.7457056400       -5.0486074360       -0.7059710799
HB            1.6579303130       -5.4663265670        1.0248163830
C             2.4918108800       -2.3377348090       -0.3535351284
O             3.5749205560       -2.5930495640       -0.8731007619
N             1.8285811440       -1.2135989120       -0.6444903303
H             1.0094990710       -1.0149878070       -0.0886758316
CA            2.2466444990       -0.1431064806       -1.5420658390
HA            3.3252160990       -0.0025771498       -1.4515451950
CB            1.9131931640       -0.5488227176       -2.9853774980
HB            0.8381253384       -0.7020080385       -3.0913261270
HB            2.2330499390        0.2319785567       -3.6758124470
HB            2.4339400120       -1.4736448550       -3.2388988820
C             1.5407058880        1.1774277140       -1.1637602230
O             0.4838521262        1.1710349500       -0.5217775505
N             2.1149966680        2.3090573630       -1.5909239830
H             2.9724515120        2.2264159510       -2.1160108840
CH            1.5917898120        3.6542705290       -1.3553264000
HH            1.9040625360        4.3225356910       -2.1595495870
HH            1.9733926240        4.0375639180       -0.4076017379
HH            0.5002637246        3.6366026410       -1.3185975770
    52
 Energy=     7.11146647221547
HH            0.4844068568        3.5615312080        2.1463880720
CH            0.2829263463        2.6043426480        2.6220054180
HH            0.9234323822        1.8360762390        2.1910152920
HH            0.4648413760        2.6748302010        3.6931089890
C            -1.1593329310        2.2236765700        2.3909760470
O            -1.8914366540        1.9678814290        3.3372772170
N            -1.5643783490        2.1433044260        1.1266142470
H            -0.8616683999        2.2631571700        0.4053497849
CA           -2.9156487460        1.7478228900        0.7032225980
HA           -3.6240580940        2.1034088350        1.4532695340
CB           -3.2298099190        2.4723178930       -0.6140900814
HB           -4.2587821410        2.2655400620       -0.9114409667
HB           -3.1113810640        3.5484640250       -0.4838047050
HB           -2.5560167910        2.1243311650       -1.3982843320
C            -3.1021148360        0.2110087696        0.6210281867
O            -3.9326900980       -0.2688455007       -0.1464546697
N            -2.2710657000       -0.5210823027        1.3763948990
H            -1.7072695950        0.0363125461        2.0058710480
CA           -1.8431325090       -1.9293297080        1.3151497450
HA           -2.1917981900       -2.4351727390        2.2159660080
CB           -2.4115352700       -2.6851228890        0.0950033040
HB           -3.5007134340       -2.7055135470        0.1474212750
HB           -2.1018888320       -2.1979405420       -0.8311261432
HB           -2.0720331480       -3.7204067740        0.0929368720
C            -0.2948440570       -1.9253687990        1.3540176470
O             0.3105970440       -0.9658991680        1.8322575130
N             0.3737958930       -2.9466230340        0.8096038774
H            -0.1576151165       -3.7054402820        0.4149719194
CA            1.8347935680       -2.9906217400        0.6522760519
HA            2.2799790650       -2.6310787620        1.5817121620
CB            2.2512784280       -4.4594911650        0.4830662497
HB            3.3398071990       -4.5317621830        0.4630919101
HB            1.8550274600       -4.8547947740       -0.4532327071
HB            1.8777612820       -5.0533300040        1.3181142110
C             2.3745916200       -2.0605180790       -0.4703217170
O             3.3450574620       -2.3939179850       -1.1467712000
N             1.7268631690       -0.9140677457       -0.7064166637
H             0.9996285678       -0.6435673111       -0.0550511985
CA            2.0551769470        0.0458614973       -1.7600481220
HA            3.1341978200        0.0356925609       -1.9235654440
CB            1.3585642120       -0.3890672201       -3.0573651830
HB            0.2766510871       -0.3957094492       -2.9147748410
HB            1.6083933310        0.3017106918       -3.8630691790
HB            1.6902585980       -1.3899972110       -3.3376929020
C             1.6408531230        1.4780194430       -1.3689055070
O             0.6781020224        1.6762546240       -0.6262127779
N             2.3513110700        2.4818833770       -1.8975114770
H             3.1191947430        2.2462764170       -2.5072858670
CH            2.0840720970        3.8968207350       -1.6441137300
HH            2.7946246250        4.5194179430       -2.1899169680
HH            2.1728892190        4.1040275470       -0.5757214219
HH            1.0701371610        4.1446980040       -1.9649316750
    52
 Energy=    -10.2303552061121
HH           -0.4623643923        4.1157644860        2.4489071250
CH           -0.3820902389        3.1069685230        2.8485500600
HH            0.5810972210        2.6788243600        2.5746588890
HH           -0.4791609288        3.1304918960        3.9330233350
C            -1.4866750480        2.2549133810        2.2720911650
O            -2.3390933500        1.7612639420        3.0017426550
N            -1.4600013450        2.0478574020        0.9591343663
H            -0.6612029349        2.3951254970        0.4391102873
CA           -2.4050090000        1.1967341760        0.2375671093
HA           -3.3936930980        1.3228668410        0.6824603803
CB           -2.4897170680        1.6832638740       -1.2164039970
HB           -3.2039507100        1.0701872340       -1.7672848190
HB           -2.8212778440        2.7218672270       -1.2399868010
HB           -1.5131636400        1.6081756360       -1.6939244210
C            -2.0279077930       -0.2922236366        0.3886797878
O            -1.6289147150       -0.9457630753       -0.5766536241
N            -2.1157025560       -0.7966711663        1.6265077230
H            -2.4084955310       -0.1342399147        2.3384392630
CA           -1.7325719300       -2.1317719980        2.1156118240
HA           -1.8695132020       -2.1098656990        3.1980084330
CB           -2.7191446530       -3.1806652880        1.5815707000
HB           -3.7392186440       -2.8978010560        1.8440041450
HB           -2.6367926060       -3.2620018080        0.4970628421
HB           -2.4958314080       -4.1505499760        2.0280088420
C            -0.2530997413       -2.5274644360        1.9097179880
O             0.4357787875       -2.8268934400        2.8798794590
N             0.2374381584       -2.5065220550        0.6696164367
H            -0.4134475894       -2.2579652720       -0.0655919760
CA            1.6276259770       -2.7762535140        0.2915478111
HA            2.2502517350       -2.7547017360        1.1877711790
CB            1.6920582080       -4.1931398800       -0.2947620609
HB            2.7265060930       -4.4437353980       -0.5339332585
HB            1.0917263970       -4.2504278460       -1.2034812870
HB            1.3170211680       -4.9122415160        0.4347611426
C             2.2197880140       -1.7238548900       -0.6743700932
O             3.3917494520       -1.8165969170       -1.0322232300
N             1.4343527660       -0.7258543851       -1.1011475500
H             0.4797160548       -0.6888978808       -0.7705961281
CA            1.8584335360        0.3273702312       -2.0268325750
HA            2.9008022010        0.1606482467       -2.3028429270
CB            1.0245213710        0.2109099166       -3.3091206900
HB           -0.0332147778        0.3460384292       -3.0809770770
HB            1.3365621000        0.9698300784       -4.0270191350
HB            1.1691968530       -0.7753250428       -3.7525386800
C             1.7813736310        1.7339643410       -1.4002532010
O             0.9637889296        1.9960071110       -0.5169351618
N             2.6221813130        2.6560215620       -1.8852491350
H             3.2668895870        2.3710828880       -2.6065221350
CH            2.6813894460        4.0403244330       -1.4189159210
HH            3.4555992180        4.5878016230       -1.9585982190
HH            2.9077032640        4.0601303330       -0.3508194687
HH            1.7177031640        4.5269941570       -1.5814487780
    52
 Energy=    -10.2303552061128
HH           -0.4623652748        4.1157651808        2.4489064280
CH           -0.3820908635        3.1069693267        2.8485495822
HH            0.5810967133        2.6788253689        2.5746585063
HH           -0.4791615578        3.1304929166        3.9330228525
C            -1.4866754490        2.2549137658        2.2720908655
O            -2.3390936076        1.7612642470        3.0017424677
N            -1.4600017125        2.0478575368        0.9591341044
H            -0.6612033826        2.3951257115        0.4391099589
CA           -2.4050091997        1.1967340154        0.2375669668
HA           -3.3936933240        1.3228666138        0.6824601904
CB           -2.4897172866        1.6832634327       -1.2164042367
HB           -3.2039508283        1.0701865943       -1.7672849694
HB           -2.8212781940        2.7218667385       -1.2399872609
HB           -1.5131638292        1.6081752122       -1.6939246081
C            -2.0279078069       -0.2922237277        0.3886798918
O            -1.6289148625       -0.9457633233       -0.5766534711
N            -2.1157022750       -0.7966710248        1.6265079470
H            -2.4084952586       -0.1342396841        2.3384394030
CA           -1.7325713696       -2.1317717002        2.1156122593
HA           -1.8695122943       -2.1098651447        3.1980089092
CB           -2.7191441471       -3.1806652293        1.5815717096
HB           -3.7392180694       -2.8978012047        1.8440056436
HB           -2.6367926204       -3.2620018055        0.4970638180
HB           -2.4958304567       -4.1505498413        2.0280097940
C            -0.2530992234       -2.5274641095        1.9097180454
O             0.4357796596       -2.8268927500        2.8798793777
N             0.2374382247       -2.5065221886        0.6696163076
H            -0.4134477650       -2.2579656017       -0.0655919544
CA            1.6276258442       -2.7762539882        0.2915472275
HA            2.2502518589       -2.7547027388        1.1877704248
CB            1.6920574107       -4.1931401874       -0.2947631163
HB            2.7265051719       -4.4437360717       -0.5339344628
HB            1.0917255076       -4.2504275812       -1.2034823169
HB            1.3170200968       -4.9122419033        0.4347598691
C             2.2197879699       -1.7238552517       -0.6743704967
O             3.3917493753       -1.8165973757       -1.0322237102
N             1.4343528486       -0.7258545352       -1.1011476972
H             0.4797161646       -0.6888979723       -0.7705962076
CA            1.8584337462        0.3273702282       -2.0268325068
HA            2.9008024622        0.1606483121       -2.3028426990
CB            1.0245218244        0.2109100835       -3.3091207952
HB           -0.0332143672        0.3460386057       -3.0809773820
HB            1.3365627316        0.9698303116       -4.0270190951
HB            1.1691973646       -0.7753248338       -3.7525388608
C             1.7813736808        1.7339642482       -1.4002529492
O             0.9637885958        1.9960069418       -0.5169352448
N             2.6221816647        2.6560214787       -1.8852483431
H             3.2668903546        2.3710828155       -2.6065209782
CH            2.6813896225        4.0403243176       -1.4189149919
HH            3.4555994406        4.5878016000       -1.9585971321
HH            2.9077032527        4.0601301692       -0.3508184976
HH            1.7177033401        4.5269940002       -1.5814479670
    52
 Energy=    -10.0344162828023
HH           -0.3735407431        4.1425765712        2.0302517366
CH           -0.2050427555        3.1506049625        2.4444896517
HH            0.7156467991        2.7353483307        2.0375890345
HH           -0.1353481186        3.2095290740        3.5296658620
C            -1.3609872024        2.2543812347        2.0712549816
O            -2.0734183445        1.7604818442        2.9384978311
N            -1.5380107989        2.0139206794        0.7757905928
H            -0.8522291130        2.3823124243        0.1244074214
CA           -2.5588872717        1.1146337918        0.2424852139
HA           -3.4717743762        1.2390522068        0.8278034483
CB           -2.8795652665        1.5366639085       -1.1975817505
HB           -3.6283606878        0.8655085512       -1.6196993652
HB           -3.2700827637        2.5548511350       -1.2049472547
HB           -1.9789193122        1.4978620786       -1.8080070813
C            -2.1173109616       -0.3557867713        0.3938865731
O            -1.7144389143       -1.0029659209       -0.5755419228
N            -2.1603917104       -0.8479179438        1.6393166858
H            -2.4303771209       -0.1770763568        2.3519358938
CA           -1.7196039848       -2.1614876730        2.1395622415
HA           -1.8558610887       -2.1367274350        3.2219789736
CB           -2.6586204916       -3.2575087306        1.6147807986
HB           -3.6907345829       -3.0161633870        1.8714564808
HB           -2.5691670810       -3.3476155746        0.5315679204
HB           -2.3948730181       -4.2117995487        2.0726523196
C            -0.2247180179       -2.4913155286        1.9337980032
O             0.4670813731       -2.8069825588        2.8966552374
N             0.2760771639       -2.3875311524        0.7027347631
H            -0.3838855847       -2.1502608344       -0.0264697521
CA            1.6889489361       -2.5232790330        0.3410972248
HA            2.3000201822       -2.4330524824        1.2412934957
CB            1.8973275551       -3.9285560229       -0.2379686655
HB            2.9518145330       -4.0711241858       -0.4784175629
HB            1.3034646308       -4.0540212656       -1.1441304285
HB            1.6005735492       -4.6779924902        0.4972230434
C             2.1773806585       -1.4320556645       -0.6365109719
O             3.3825991517       -1.2352821010       -0.7767327145
N             1.2736227020       -0.7037912403       -1.3059950467
H             0.2883816795       -0.8626440195       -1.1414361081
CA            1.6388460658        0.3721140820       -2.2265758446
HA            2.6271415971        0.1620256906       -2.6390998166
CB            0.6583891713        0.3709629297       -3.4054054794
HB           -0.3589794210        0.5236178301       -3.0483643724
HB            0.9171035441        1.1706179811       -4.1001652714
HB            0.7117267247       -0.5848306487       -3.9281438516
C             1.7128110046        1.7293645801       -1.5006894938
O             0.7193386027        2.2052528031       -0.9489123373
N             2.8916852243        2.3623411153       -1.5172529495
H             3.6710694735        1.8883601627       -1.9489372931
CH            3.1389390923        3.6571787798       -0.8857172568
HH            4.1588603714        3.9867873377       -1.0893235177
HH            2.9987545616        3.5729587341        0.1936983262
HH            2.4375242878        4.3984597474       -1.2738470416
    52
 Energy=    -12.9478115654509
HH           -1.5485400812        5.0304680537        1.1424127264
CH           -0.8512952697        4.2562349085        1.4559904764
HH            0.0016597124        4.2447417246        0.7796199782
HH           -0.5143389121        4.4538914153        2.4722730949
C            -1.5553558515        2.9207038751        1.4182897136
O            -1.9571925598        2.4024151348        2.4538664010
N            -1.6933660295        2.3427694321        0.2287627583
H            -1.2106297203        2.7615682142       -0.5565942506
CA           -2.4575912918        1.1166414406       -0.0108128884
HA           -3.3235862853        1.1293370179        0.6534810886
CB           -2.9997563672        1.1542634612       -1.4465067773
HB           -3.6011293993        0.2643568179       -1.6365418384
HB           -3.6245470810        2.0377033006       -1.5830775630
HB           -2.1765003438        1.1866206065       -2.1578346471
C            -1.6655355598       -0.1632918315        0.3424662254
O            -1.4229052923       -1.0160287148       -0.5120530112
N            -1.2528140737       -0.2842609459        1.6095555987
H            -1.4749236520        0.4952833082        2.2213372481
CA           -0.5235945148       -1.4118822505        2.2081098480
HA           -0.1566408287       -1.0596450860        3.1734348502
CB           -1.5014586256       -2.5566611534        2.5177653689
HB           -2.2924201125       -2.1957198028        3.1765562713
HB           -1.9517022169       -2.9327252081        1.5981802550
HB           -0.9709926933       -3.3681657738        3.0177073776
C             0.7451764744       -1.8438812267        1.4401088898
O             1.8311533220       -1.3520495856        1.7349141891
N             0.6218750896       -2.7228285309        0.4387891637
H            -0.3097628695       -3.0233233572        0.1948551289
CA            1.7204978137       -3.0814508930       -0.4654594352
HA            2.5717594963       -3.4160406397        0.1303658972
CB            1.2534462484       -4.2466324733       -1.3459214553
HB            2.0683092133       -4.5524684261       -2.0039358702
HB            0.4014999340       -3.9401474674       -1.9547731792
HB            0.9687013281       -5.0941351439       -0.7212762249
C             2.2010053702       -1.8850196877       -1.3160002500
O             3.3706724425       -1.8171150352       -1.6802675497
N             1.3168467790       -0.9144841083       -1.5702775628
H             0.3619380415       -1.0648352825       -1.2648972061
CA            1.6403044276        0.4128708943       -2.0955272605
HA            2.6933076966        0.4304518785       -2.3813950094
CB            0.8235857326        0.6529363931       -3.3722616287
HB           -0.2406476948        0.6109799777       -3.1494188896
HB            1.0664460581        1.6324029486       -3.7861135341
HB            1.0647463117       -0.1119830687       -4.1112979929
C             1.4786213802        1.4950144948       -1.0020906658
O             0.8656793734        2.5417683581       -1.2206169595
N             1.9782316164        1.2051365555        0.2074968294
H             2.4017904677        0.2924403886        0.3311827647
CH            1.9582388535        2.0822455348        1.3745861298
HH            2.7743266264        1.8122901327        2.0469087938
HH            1.0149102036        1.9671512881        1.9086477862
HH            2.0824972162        3.1220881345        1.0672874002
