    52
Energy=    -35.3503472283944    
HH        -5.644816109        -1.683388396       -0.2403255399    
CH        -4.603567815        -1.729886291       -0.5568119673    
HH        -4.331695567        -2.764807155       -0.7607318490    
HH        -4.468388584        -1.132961118        -1.457993378    
C         -3.722059529        -1.190781104        0.5464811228    
O         -2.999208703       -0.2153100068        0.3419130421    
N         -3.771813250        -1.826468743         1.716494482    
H         -4.384487038        -2.624042944         1.800808757    
CA        -2.962310857        -1.451239973         2.878298987    
HA        -3.114996937       -0.3868497303         3.068354676    
CB        -3.466316594        -2.219198560         4.107401465    
HB        -3.344477783        -3.292928999         3.955584021    
HB        -2.896097822        -1.917685176         4.987279307    
HB        -4.520612153        -1.996326996         4.277985027    
C         -1.455960490        -1.682760248         2.627588746    
O         -1.050123511        -2.749620057         2.153807559    
N        -0.6313697664       -0.6783660167         2.954102548    
H         -1.048178099        0.1491115038         3.358749186    
CA        0.8272138085       -0.6533365072         2.758916587    
HA         1.135889235        0.3768532017         2.944785821    
CB         1.496613731        -1.506464810         3.850117775    
HB         1.269726031        -2.561718149         3.694234500    
HB         1.135095559        -1.202469666         4.833384096    
HB         2.577922799        -1.367150600         3.818586326    
C          1.315006915       -0.9549080955         1.315035695    
O          2.458941680        -1.376495571         1.113914479    
N         0.4669634207       -0.7349743877        0.3001324509    
H        -0.4621300762       -0.4029829152        0.5200841806    
CA        0.7623808559        -1.043763882        -1.105875575    
HA         1.299507825        -1.993260125        -1.143537085    
CB       -0.5721584521        -1.238473794        -1.837141044    
HB        -1.135941872       -0.3045057610        -1.842946170    
HB       -0.3850644517        -1.545544636        -2.866905673    
HB        -1.158479740        -2.013552570        -1.341552871    
C          1.652229870        0.4696560492E-02    -1.816710625    
O          2.231142925       -0.2995951761        -2.865312514    
N          1.781796073         1.211149184        -1.242272210    
H          1.276087063         1.356042357       -0.3813578532    
CA         2.506671782         2.373118559        -1.782478988    
HA         2.306839760         3.207300389        -1.107407131    
CB         4.020180801         2.102109382        -1.690930367    
HB         4.579684740         3.015098204        -1.896652734    
HB         4.275970396         1.762067861       -0.6862666823    
HB         4.312994278         1.338924020        -2.412679098    
C          2.026660706         2.853583909        -3.179901939    
O          1.056459211         2.337681536        -3.749113777    
N          2.681128913         3.892160364        -3.719789530    
H          3.454253417         4.278531280        -3.194618350    
CH         2.366132596         4.503234006        -5.012554839    
HH         1.347093879         4.895751829        -5.004166219    
HH         2.452340795         3.761503987        -5.809426585    
HH         3.057326436         5.322899824        -5.218580242    
    52
Energy=    -34.5885397206723    
HH        -5.322027510       -0.9869221671       -0.8641685038    
CH        -4.631456352        -1.768460096       -0.5505906442    
HH        -5.200110150        -2.626918070       -0.1947282956    
HH        -4.010398575        -2.074107686        -1.391384939    
C         -3.741901574        -1.227662465        0.5472949129    
O         -3.023290334       -0.2529488592        0.3260223870    
N         -3.775511694        -1.850425395         1.725695477    
H         -4.383743673        -2.649024566         1.828393859    
CA        -2.955814282        -1.456913172         2.874446909    
HA        -3.108912362       -0.3900949637         3.050092141    
CB        -3.447552562        -2.207185597         4.119347260    
HB        -3.324219897        -3.282807925         3.982863588    
HB        -2.870731714        -1.890979524         4.989722928    
HB        -4.500928358        -1.984254400         4.295492602    
C         -1.450779836        -1.688559625         2.615679704    
O         -1.047698971        -2.753427874         2.135121680    
N        -0.6238742688       -0.6871328738         2.945527598    
H         -1.038618121        0.1385465089         3.355956076    
CA        0.8349601690       -0.6644754462         2.751468520    
HA         1.145675061        0.3641810833         2.942361950    
CB         1.501473185        -1.523923699         3.839468219    
HB         1.272511738        -2.577976723         3.678561375    
HB         1.139599062        -1.223635225         4.823743653    
HB         2.583106094        -1.386757037         3.809673344    
C          1.324036513       -0.9604111847         1.306906782    
O          2.468609010        -1.379937088         1.105113166    
N         0.4766197352       -0.7374253484        0.2922366916    
H        -0.4530696484       -0.4078333811        0.5129586592    
CA        0.7735028931        -1.039680567        -1.114855959    
HA         1.315461944        -1.986279325        -1.156045277    
CB       -0.5602590792        -1.238838732        -1.846235145    
HB        -1.129728329       -0.3082904022        -1.847153849    
HB       -0.3720784256        -1.540028394        -2.877542171    
HB        -1.141307005        -2.019782439        -1.353710456    
C          1.658036771        0.1570273328E-01    -1.822096506    
O          2.235813607       -0.2810318184        -2.873487076    
N          1.784517509         1.219631372        -1.241703395    
H          1.280286309         1.358228582       -0.3788915537    
CA         2.504024463         2.386995387        -1.777463107    
HA         2.302647140         3.216957218        -1.097665283    
CB         4.018699086         2.121008583        -1.690567293    
HB         4.574450851         3.037070733        -1.892768567    
HB         4.277893664         1.776720823       -0.6882255693    
HB         4.312708308         1.362626410        -2.416878589    
C          2.019254081         2.872927757        -3.171349062    
O          1.049644495         2.356507574        -3.741099462    
N          2.668842684         3.916593550        -3.707301905    
H          3.441739125         4.303010503        -3.181829189    
CH         2.348845997         4.533181194        -4.996215541    
HH         1.328440412         4.922017500        -4.983591603    
HH         2.435942029         3.795871086        -5.797082589    
HH         3.036671087         5.356353273        -5.199517953    
    52
Energy=    -35.3503472283946    
HH        -4.466905273        -1.147199037        -1.451377478    
CH        -4.596621913        -1.749472111       -0.5529556617    
HH        -5.637186219        -1.709724316       -0.2333156171    
HH        -4.320278614        -2.781971606       -0.7630466106    
C         -3.714641222        -1.211820721        0.5506692456    
O         -2.997141045       -0.2317687236        0.3491826298    
N         -3.757985206        -1.853839161         1.717476467    
H         -4.366518207        -2.654832113         1.799333356    
CA        -2.947043790        -1.480717904         2.878956129    
HA        -3.104385002       -0.4180937257         3.075003061    
CB        -3.443820173        -2.257535576         4.105431821    
HB        -3.317172004        -3.329850179         3.947660088    
HB        -2.872595559        -1.957828390         4.985274319    
HB        -4.498704633        -2.040720521         4.280130470    
C         -1.440295986        -1.703550701         2.622820862    
O         -1.030597625        -2.765925404         2.142332192    
N        -0.6196975648       -0.6968486088         2.952271951    
H         -1.039394178        0.1264568126         3.362406160    
CA        0.8381889431       -0.6636613910         2.753134750    
HA         1.142356829        0.3670435572         2.943523661    
CB         1.514826465        -1.519182550         3.837980085    
HB         1.292652156        -2.574706515         3.677216390    
HB         1.154609617        -1.222093663         4.823831546    
HB         2.595349257        -1.374413969         3.804148971    
C          1.323364836       -0.9553061832         1.306335782    
O          2.468770535        -1.370233866         1.099809055    
N         0.4713926225       -0.7342359463        0.2949760489    
H        -0.4586847036       -0.4079484407        0.5192626216    
CA        0.7643381098        -1.034237684        -1.113449629    
HA         1.305985111        -1.980883273        -1.157580587    
CB       -0.5712966825        -1.231662827        -1.841981939    
HB        -1.139646706       -0.3004488086        -1.841323599    
HB       -0.3856177066        -1.532438954        -2.873858332    
HB        -1.152424135        -2.012177300        -1.348813167    
C          1.647045393        0.2226039863E-01    -1.821282032    
O          2.224469354       -0.2737193985        -2.873079176    
N          1.772345116         1.226319982        -1.240906881    
H          1.268371443         1.364242690       -0.3778327097    
CA         2.490009879         2.394626468        -1.777058200    
HA         2.288018269         3.224287121        -1.097075287    
CB         4.005076552         2.130556642        -1.691170090    
HB         4.559533337         3.047334520        -1.893681656    
HB         4.265363020         1.786535346       -0.6890194180    
HB         4.299569557         1.372589401        -2.417718362    
C          2.003709479         2.880019043        -3.170598452    
O          1.034432121         2.362349007        -3.739779834    
N          2.651570950         3.924589564        -3.706878462    
H          3.424282226         4.311996255        -3.181862180    
CH         2.329941182         4.540849048        -4.995542248    
HH         1.309025893         4.928322535        -4.982245766    
HH         2.417516729         3.803717316        -5.796521138    
HH         3.016539463         5.364953662        -5.199213150    
