    52
Energy=    -41.0583417174378    
HH        -4.378368481        -3.843302018         1.508601920    
CH        -3.299275853        -3.874029488         1.362740255    
HH        -3.059585643        -4.568211588        0.5580491661    
HH        -2.817785007        -4.201703190         2.283308276    
C         -2.805789525        -2.491598064         1.004449043    
O         -2.222573332        -2.298173215       -0.6137052213E-01
N         -3.016700692        -1.530635459         1.904652660    
H         -3.502275890        -1.780406986         2.754546800    
CA        -2.679845416       -0.1151995280         1.699433113    
HA        -3.168745186        0.2221855772        0.7836721692    
CB        -3.265703304        0.6830002401         2.871676338    
HB        -4.342704961        0.5192594174         2.931969860    
HB        -2.799549214        0.3722752218         3.808194530    
HB        -3.081872308         1.747538172         2.719133462    
C         -1.166637882        0.1573814466         1.533497189    
O        -0.7804515444         1.170828631        0.9442853290    
N        -0.3031903804       -0.7577140710         1.993238897    
H        -0.6818963254        -1.557702248         2.480035401    
CA         1.154255451       -0.6724795743         1.847707201    
HA         1.487589323        0.2763651955         2.272228320    
CB         1.776002643        -1.808044403         2.670921460    
HB         1.464341275        -2.775295360         2.273020013    
HB         1.462313837        -1.727214296         3.712805436    
HB         2.863987563        -1.739737274         2.627034494    
C          1.635950427       -0.7128944062        0.3781655354    
O          2.731087247       -0.2305048098        0.7544802218E-01
N         0.8158775138        -1.226271544       -0.5499616916    
H        -0.6828036488E-01    -1.614797007       -0.2457892425    
CA         1.115476326        -1.267220765        -1.986093160    
HA         2.094962117        -1.730434899        -2.118901652    
CB        0.7126691364E-01    -2.165413106        -2.661359056    
HB        0.3102249327        -2.274622044        -3.720085179    
HB       -0.9216855751        -1.723500478        -2.565352937    
HB        0.7360255819E-01    -3.152920931        -2.197632509    
C          1.175700182        0.1284828402        -2.652736787    
O          1.757954287        0.2703673176        -3.732293934    
N         0.6165022477         1.164696427        -2.012124077    
H         0.1324856968        0.9827059810        -1.142562459    
CA        0.6797077566         2.558072537        -2.468426169    
HA        0.5959467845         2.569424503        -3.556620981    
CB       -0.5410528901         3.295948524        -1.902135502    
HB       -0.4799124564         3.341455059       -0.8140103134    
HB       -0.5729031734         4.311909493        -2.297780136    
HB        -1.456718662         2.778533491        -2.191970992    
C          2.005987486         3.277240577        -2.112931081    
O          2.241332764         4.398966974        -2.576163428    
N          2.876636786         2.655246197        -1.302040615    
H          2.624293252         1.735384697       -0.9624293622    
CH         4.164875458         3.201359032       -0.8744892253    
HH         4.014624023         4.135579754       -0.3294107127    
HH         4.673245086         2.489653864       -0.2209886217    
HH         4.797274430         3.396165384        -1.743154543    
    52
Energy=    -37.3225276758445    
HH        -4.418460691        -3.672039828         1.537102194    
CH        -3.342513349        -3.747634842         1.384507890    
HH        -3.136736115        -4.454997865        0.5819101438    
HH        -2.868761702        -4.090205062         2.303668302    
C         -2.795276353        -2.388366363         1.015896747    
O         -2.211604041        -2.224293847       -0.5459714049E-01
N         -2.960783300        -1.415130898         1.912431624    
H         -3.450558338        -1.640680699         2.766691108    
CA        -2.567957936       -0.1563859062E-01     1.697679275    
HA        -3.050577874        0.3375443672        0.7845351291    
CB        -3.110203896        0.8111743366         2.871055845    
HB        -4.192484675        0.6923110515         2.941235053    
HB        -2.649206414        0.4855672180         3.805072029    
HB        -2.883941485         1.866543683         2.711926251    
C         -1.046397509        0.1935803110         1.517597174    
O        -0.6241927309         1.185514777        0.9164854096    
N        -0.2170993634       -0.7527024169         1.977008956    
H        -0.6234648457        -1.532803891         2.473729434    
CA         1.240983571       -0.7275369729         1.817164363    
HA         1.618258278        0.2042226568         2.242786847    
CB         1.823327561        -1.892952510         2.627262082    
HB         1.466227167        -2.843970231         2.228392929    
HB         1.525517175        -1.804510735         3.673180769    
HB         2.912648150        -1.870600935         2.570718976    
C          1.703396343       -0.7807796627        0.3421404887    
O          2.799046314       -0.3107241221        0.2299480262E-01
N         0.8649237297        -1.288023123       -0.5727717288    
H        -0.1978475236E-01    -1.664999493       -0.2557651760    
CA         1.143169200        -1.329490931        -2.013278780    
HA         2.125614844        -1.781934518        -2.160685152    
CB        0.9891445126E-01    -2.240595500        -2.670911803    
HB        0.3239535707        -2.350247567        -3.732641959    
HB       -0.8971787231        -1.808893442        -2.562187563    
HB        0.1183477369        -3.226664087        -2.204538168    
C          1.176846519        0.6619743134E-01    -2.681712468    
O          1.751634455        0.2168167003        -3.764010802    
N         0.6016552005         1.091592566        -2.037853763    
H         0.1345018276        0.8992486062        -1.161131836    
CA        0.6307001001         2.489702408        -2.487760460    
HA        0.6643434170         2.494475080        -3.578725232    
CB       -0.6882415080         3.171866371        -2.073891888    
HB        -1.306107076         2.510308555        -1.465173794    
HB       -0.4876921760         4.078523078        -1.501452024    
HB        -1.250103383         3.443283124        -2.968340114    
C          1.885328720         3.272401825        -2.020241114    
O          2.074252359         4.428033534        -2.416914216    
N          2.748431842         2.665458210        -1.190264373    
H          2.540503537         1.714354316       -0.9134759558    
CH         3.971550915         3.269042912       -0.6607581962    
HH         3.728945305         4.160339940       -0.7835481879E-01
HH         4.490079891         2.556763158       -0.1590936225E-01
HH         4.636226358         3.551551716        -1.479825935    
    52
Energy=    -41.0583417174371    
HH        -4.356208468        -3.845812306         1.565291833    
CH        -3.277334629        -3.873131608         1.417151389    
HH        -3.036247760        -4.575756045        0.6202423845    
HH        -2.792061805        -4.187444563         2.340388424    
C         -2.791360249        -2.492752734         1.041118091    
O         -2.211645290        -2.309333310       -0.2837409286E-01
N         -3.004721143        -1.522087663         1.930266928    
H         -3.487045022        -1.763970818         2.784284115    
CA        -2.675165977       -0.1076204179         1.707284365    
HA        -3.167882385        0.2164252381        0.7887557839    
CB        -3.262031735        0.7017652344         2.871324731    
HB        -4.338086002        0.5336167605         2.936226498    
HB        -2.792138847        0.4045176357         3.810345780    
HB        -3.083685741         1.765264187         2.705593436    
C         -1.163689226        0.1701763301         1.534370689    
O        -0.7837955101         1.178321422        0.9321166384    
N        -0.2947511349       -0.7352086131         2.002909407    
H        -0.6684366019        -1.531104297         2.500181316    
CA         1.161914053       -0.6447644533         1.852779084    
HA         1.491704540        0.3106816520         2.265086030    
CB         1.791088984        -1.767398229         2.687998256    
HB         1.483123164        -2.740826418         2.302476012    
HB         1.479522077        -1.675585262         3.729608946    
HB         2.878624400        -1.694426314         2.640617538    
C          1.640261955       -0.7004889096        0.3826450169    
O          2.732336820       -0.2165371128        0.7147719242E-01
N         0.8204356798        -1.228864554       -0.5372462138    
H        -0.6111085138E-01    -1.617934891       -0.2262670291    
CA         1.116772946        -1.285592531        -1.973517795    
HA         2.098151066        -1.745681748        -2.103181743    
CB        0.7527063179E-01    -2.196790955        -2.635406900    
HB        0.3122036118        -2.317539002        -3.693334686    
HB       -0.9195601566        -1.758506939        -2.542254255    
HB        0.8346686655E-01    -3.178647369        -2.159896357    
C          1.168685830        0.1022923212        -2.656972186    
O          1.747653221        0.2340065953        -3.739581438    
N         0.6060574422         1.143427085        -2.027438011    
H         0.1250138572        0.9695624073        -1.154570271    
CA        0.6614688756         2.531519957        -2.500546095    
HA        0.5750372519         2.529428072        -3.588589252    
CB       -0.5614578530         3.270291366        -1.940126903    
HB        -1.475321167         2.745072085        -2.221490161    
HB       -0.4979197614         3.329128203       -0.8527784941    
HB       -0.5991413502         4.281273524        -2.347828809    
C          1.985128604         3.261223616        -2.156955019    
O          2.213966130         4.378428383        -2.634164210    
N          2.860704442         2.653158716        -1.340821093    
H          2.613601574         1.736239130       -0.9895991058    
CH         4.147328508         3.210503625       -0.9230131728    
HH         3.993900845         4.150462004       -0.3887916454    
HH         4.660682709         2.509118433       -0.2622914189    
HH         4.776692883         3.397902879        -1.795503529    
