    52
Energy=    -37.9728100101802    
HH        -5.374853281        -1.603966959        0.8569213279    
CH        -4.469620842        -2.176951946        0.6597045669    
HH        -4.380106439        -2.977881159         1.392605265    
HH        -4.518079727        -2.602264846       -0.3421088704    
C         -3.269925075        -1.264710924        0.7663051965    
O         -2.521064123        -1.109445402       -0.1973553265    
N         -3.069409456       -0.6770968956         1.946468851    
H         -3.733875384       -0.8635844247         2.684187396    
CA        -2.005720915        0.3006412469         2.213689726    
HA        -2.107841591         1.119554655         1.499233203    
CB        -2.230179594        0.8679697650         3.621578989    
HB        -2.136824314        0.7515923562E-01     4.365678682    
HB        -1.487260722         1.639542545         3.829097000    
HB        -3.224295641         1.312397281         3.689501101    
C        -0.5751026852       -0.2650055223         2.056953973    
O         0.3645273185        0.4912839277         1.794452251    
N        -0.4044855547        -1.590155723         2.152975298    
H         -1.212758321        -2.150892698         2.382622671    
CA        0.8746799845        -2.283604728         1.961806385    
HA         1.610276662        -1.837774061         2.633879719    
CB        0.6795661300        -3.748623144         2.373690305    
HB       -0.4978135133E-01    -4.228964477         1.719247926    
HB        0.3300752234        -3.801664554         3.405909215    
HB         1.629013263        -4.280678562         2.298365017    
C          1.440260161        -2.172016835        0.5252499392    
O          2.642416638        -2.365186634        0.3208484468    
N         0.6050719568        -1.824056938       -0.4638244982    
H        -0.3760438727        -1.706553322       -0.2425693801    
CA         1.020294394        -1.562317867        -1.846898190    
HA         1.779971795        -2.295412434        -2.124123343    
CB       -0.1953035251        -1.786354336        -2.755863841    
HB        0.1036946264        -1.688610068        -3.800217193    
HB       -0.9668105061        -1.046667164        -2.538030512    
HB       -0.5987453841        -2.787689977        -2.598917491    
C          1.646064842       -0.1608257515        -2.061568226    
O          2.208492551        0.9534533917E-01    -3.131788203    
N          1.572777108        0.7257421883        -1.055199218    
H          1.115863159        0.4180044747       -0.2072008702    
CA         2.009293916         2.130338559        -1.078457103    
HA         1.696440258         2.566274142       -0.1278646630    
CB         3.548754550         2.176828593        -1.083332878    
HB         3.941669455         1.534690352       -0.2935882336    
HB         3.935352803         1.839281773        -2.045459772    
HB         3.895274446         3.194637139       -0.9019960417    
C          1.339932132         3.008149695        -2.171286259    
O         0.4715456883         2.557991580        -2.929275487    
N          1.711380848         4.295689500        -2.221959722    
H          2.414241087         4.603558765        -1.563133146    
CH         1.181965914         5.285926798        -3.161573343    
HH         1.659553397         6.253614706        -2.995649391    
HH        0.1044357817         5.396725370        -3.022933060    
HH         1.375202515         4.969609525        -4.188798190    
    52
Energy=    -37.2050442793852    
HH        -5.023106639        -2.220840798         1.574955675    
CH        -4.466228301        -2.187624151        0.6390938698    
HH        -4.116538386        -3.189636235        0.3943622119    
HH        -5.118112001        -1.819017057       -0.1516866457    
C         -3.273674853        -1.265896408        0.7617619937    
O         -2.520683794        -1.110889260       -0.1984631608    
N         -3.078085832       -0.6712093862         1.940149702    
H         -3.742435471       -0.8544943845         2.678542597    
CA        -2.016898993        0.3102164160         2.204474773    
HA        -2.117577296         1.123885345         1.483835217    
CB        -2.247538975        0.8873092439         3.607411834    
HB        -2.155591592        0.1000811312         4.357594431    
HB        -1.506664839         1.661607474         3.812089323    
HB        -3.242609149         1.330606335         3.668463251    
C        -0.5847544563       -0.2541755764         2.057156914    
O         0.3549223155        0.5020470926         1.794630176    
N        -0.4126186816        -1.578532856         2.161227837    
H         -1.221078380        -2.139239822         2.390398429    
CA        0.8683636185        -2.271126077         1.979291716    
HA         1.600446232        -1.820539825         2.652029975    
CB        0.6736197735        -3.734155938         2.398356556    
HB       -0.5223139318E-01    -4.219146024         1.743456040    
HB        0.3197995246        -3.782060958         3.429350983    
HB         1.624149801        -4.265217959         2.329998384    
C          1.439880666        -2.166553034        0.5445513802    
O          2.643076121        -2.359550443        0.3462016144    
N         0.6084752100        -1.824717991       -0.4498317431    
H        -0.3736405974        -1.706982695       -0.2332621193    
CA         1.029147859        -1.569827187        -1.832527562    
HA         1.790566332        -2.303697595        -2.102838439    
CB       -0.1825791785        -1.799613950        -2.745215237    
HB        0.1204943627        -1.706781241        -3.788842013    
HB       -0.9556933412        -1.059638639        -2.534144408    
HB       -0.5856537730        -2.800561027        -2.584882435    
C          1.654576018       -0.1689161882        -2.051927841    
O          2.221465104        0.8206324413E-01    -3.121022633    
N          1.576064103        0.7229375232        -1.050634409    
H          1.115684600        0.4193150185       -0.2030255605    
CA         2.011429274         2.127788476        -1.079471339    
HA         1.694000864         2.568507134       -0.1326082966    
CB         3.550854769         2.175653591        -1.077816779    
HB         3.940854306         1.538095420       -0.2829330071    
HB         3.941989336         1.833330629        -2.036416314    
HB         3.895669506         3.194729942       -0.9003919841    
C          1.346111723         2.999142071        -2.179912021    
O         0.4814518874         2.544159385        -2.939279745    
N          1.716661647         4.286722867        -2.235852151    
H          2.416354879         4.598740613        -1.575607701    
CH         1.190519029         5.271444064        -3.183070262    
HH         1.666533418         6.240431547        -3.020238980    
HH        0.1122947228         5.382022915        -3.049753730    
HH         1.388539219         4.949805024        -4.207728364    
    52
Energy=    -37.9728100101693    
HH        -4.384226624        -2.978090175         1.379133957    
CH        -4.468881247        -2.185241014        0.6369293568    
HH        -4.505637923        -2.621251114       -0.3607748225    
HH        -5.377993868        -1.613326346        0.8188080740    
C         -3.273388225        -1.267806704        0.7461448918    
O         -2.515197150        -1.120129616       -0.2113933520    
N         -3.086954756       -0.6671034083         1.922019509    
H         -3.758332675       -0.8480911745         2.654833495    
CA        -2.029327789        0.3170487063         2.189754469    
HA        -2.126836956         1.128031886         1.465672864    
CB        -2.270114148        0.8984063346         3.589197481    
HB        -2.181761042        0.1138066961         4.342553457    
HB        -1.531938726         1.674673551         3.796134631    
HB        -3.266349902         1.340103293         3.642245213    
C        -0.5952998917       -0.2452947683         2.053648937    
O         0.3444507510        0.5114138483         1.792792210    
N        -0.4212643233        -1.568765086         2.165413380    
H         -1.229979473        -2.129827670         2.392695842    
CA        0.8620987297        -2.259786644         1.994679542    
HA         1.589269225        -1.804372602         2.669491472    
CB        0.6676482549        -3.721046399         2.420009597    
HB       -0.5333943662E-01    -4.210761700         1.763255425    
HB        0.3077593560        -3.764410846         3.449102727    
HB         1.619585449        -4.250597659         2.360028195    
C          1.442019513        -2.161396344        0.5628840042    
O          2.646847459        -2.352573589        0.3728429128    
N         0.6158730442        -1.826751071       -0.4383044060    
H        -0.3678480976        -1.710297767       -0.2283507265    
CA         1.044395676        -1.578172066        -1.819748102    
HA         1.809316232        -2.311529870        -2.081423595    
CB       -0.1610553762        -1.815952118        -2.738680968    
HB        0.1483192435        -1.728188701        -3.780896249    
HB       -0.9372172290        -1.076668646        -2.536581431    
HB       -0.5627492158        -2.816960197        -2.575293549    
C          1.667664916       -0.1768757266        -2.042808859    
O          2.240190707        0.6993839981E-01    -3.109868538    
N          1.581099815        0.7199883840        -1.046669490    
H          1.116533938        0.4196324916       -0.2001832566    
CA         2.013151946         2.125754467        -1.080306959    
HA         1.689108489         2.570602253       -0.1376248755    
CB         3.552418168         2.177483895        -1.069928739    
HB         3.939343497         1.545056367       -0.2694635882    
HB         3.949992653         1.831150864        -2.024429752    
HB         3.893666993         3.198331922       -0.8958257037    
C          1.352121563         2.989696824        -2.189142183    
O         0.4930648815         2.528594548        -2.951173235    
N          1.719780037         4.277901157        -2.249619744    
H          2.414811889         4.595109346        -1.586929658    
CH         1.196741460         5.256358251        -3.205012959    
HH         1.669374617         6.227377246        -3.044450007    
HH        0.1174819859         5.364904681        -3.078579978    
HH         1.401563884         4.929903411        -4.226806917    
