    52
Energy=    -41.7229924013834    
HH        -4.555272190        -1.784927439        0.2682817247    
CH        -3.556780169        -2.216109754        0.2081365878    
HH        -3.419962985        -2.685919724       -0.7651873476    
HH        -3.434060350        -2.960300373        0.9940454411    
C         -2.531310698        -1.123058013        0.3899244278    
O         -1.705666568       -0.8953607345       -0.4925694630    
N         -2.559602183       -0.4589594220         1.545292869    
H         -3.268836300       -0.7132109496         2.218224664    
CA        -1.696685800        0.6875920462         1.857496083    
HA        -1.884925467         1.469261114         1.120119582    
CB        -2.105911319         1.226550218         3.234344364    
HB        -3.160930474         1.504493372         3.226216916    
HB        -1.937917810        0.4682282291         4.000951077    
HB        -1.512911816         2.110766556         3.472832681    
C        -0.1873009800        0.3604238381         1.808899219    
O         0.6198366358         1.218083939         1.442013547    
N         0.1961478304       -0.8869100060         2.109381006    
H        -0.5132678368        -1.536944220         2.417900391    
CA         1.581090432        -1.364694128         2.031220583    
HA         2.219041966       -0.6682528243         2.578562288    
CB         1.649949975        -2.726242930         2.734632673    
HB         1.024212887        -3.451880046         2.212301817    
HB         1.308033941        -2.629503402         3.766203358    
HB         2.680454158        -3.084343912         2.739490590    
C          2.123869652        -1.448133168        0.5850653657    
O          3.336994170        -1.349318730        0.3773055547    
N          1.241152434        -1.596934406       -0.4123089122    
H         0.2628631747        -1.682958270       -0.1684086947    
CA         1.579816413        -1.587836136        -1.839746748    
HA         2.632098244        -1.849252881        -1.963990010    
CB        0.7497199855        -2.676286446        -2.532425522    
HB         1.017875348        -2.724169912        -3.588728317    
HB       -0.3146186741        -2.452364564        -2.446170239    
HB        0.9524556727        -3.645203151        -2.073872999    
C          1.372377762       -0.2040285684        -2.493455389    
O          2.142156551        0.1845917211        -3.377213064    
N         0.3610431956        0.5545845167        -2.051201062    
H        -0.2751102347        0.1482182699        -1.374982172    
CA        0.3652803531E-01     1.886278156        -2.573614914    
HA        0.9827734836E-01     1.855770317        -3.663017932    
CB        -1.416894976         2.198218246        -2.194907880    
HB        -1.518278665         2.254980097        -1.110691752    
HB        -2.077293711         1.419423130        -2.579310778    
HB        -1.711145106         3.154571289        -2.629333327    
C         0.9970367737         2.998899388        -2.091354196    
O          1.190494224         3.994631938        -2.797682858    
N          1.611002273         2.839464149       -0.9097071258    
H          1.365233945         2.022722560       -0.3621240172    
CH         2.565517036         3.781005713       -0.3247816238    
HH         2.101041756         4.762116883       -0.2063128658    
HH         2.887978411         3.423515289        0.6550710451    
HH         3.440384382         3.878712935       -0.9708146467    
    52
Energy=    -41.3604830199878    
HH        -4.549592318        -1.828204611        0.2795502323    
CH        -3.546196980        -2.246454044        0.2103557604    
HH        -3.409883672        -2.708719176       -0.7666456987    
HH        -3.409055380        -2.993710521        0.9909541410    
C         -2.533307468        -1.141702224        0.3921260581    
O         -1.716389609       -0.8983450574       -0.4943055784    
N         -2.562327971       -0.4849749826         1.551677553    
H         -3.263961163       -0.7518922809         2.227659965    
CA        -1.711196078        0.6699724315         1.865019684    
HA        -1.913465219         1.453533826         1.133403624    
CB        -2.117768058         1.196186616         3.247574817    
HB        -3.175985338         1.461816392         3.247797604    
HB        -1.936013484        0.4355136163         4.008692616    
HB        -1.533578518         2.085891259         3.487386557    
C        -0.1985178408        0.3605428978         1.804793753    
O         0.5958454508         1.227843595         1.432722338    
N         0.2014982955       -0.8825247336         2.101407354    
H        -0.4981106836        -1.540988598         2.414434994    
CA         1.591513658        -1.343684450         2.014124472    
HA         2.224904290       -0.6389842365         2.556173870    
CB         1.681828067        -2.703466079         2.718512062    
HB         1.061142296        -3.437229287         2.201533624    
HB         1.346201315        -2.609609724         3.752412411    
HB         2.716588144        -3.049108237         2.716326066    
C          2.124761611        -1.422203408        0.5642534295    
O          3.334335884        -1.303080571        0.3467990480    
N          1.237219020        -1.588806253       -0.4259457728    
H         0.2622597246        -1.689727034       -0.1748330519    
CA         1.565668533        -1.576635564        -1.855712452    
HA         2.617221370        -1.837368923        -1.987495323    
CB        0.7311826435        -2.663829223        -2.545073726    
HB        0.9925036398        -2.709612585        -3.603179150    
HB       -0.3325871784        -2.440208768        -2.451588691    
HB        0.9369952144        -3.633622600        -2.089759080    
C          1.352997805       -0.1913232630        -2.504476782    
O          2.113670280        0.1982076913        -3.395681503    
N         0.3478093817        0.5677413194        -2.049161524    
H        -0.2821705409        0.1599497341        -1.368069458    
CA        0.2177381179E-01     1.902858853        -2.561886367    
HA        0.6750005314E-01     1.875932418        -3.652175407    
CB        -1.424508756         2.219886030        -2.160747531    
HB        -1.509357693         2.274078564        -1.074994575    
HB        -2.093944278         1.445044084        -2.537430217    
HB        -1.721041826         3.178735374        -2.588054567    
C         0.9942039946         3.009626891        -2.089608326    
O          1.179001265         4.006222846        -2.796943926    
N          1.623859686         2.839381956       -0.9166096067    
H          1.373828804         2.019197850       -0.3762782077    
CH         2.596793725         3.757086627       -0.3193214716    
HH         2.776539591         4.619478391       -0.9643431200    
HH         2.225374882         4.112783639        0.6436658096    
HH         3.543937917         3.238503328       -0.1590367343    
    52
Energy=    -41.7229924013858    
HH        -4.545685434        -1.805486691        0.2922456668    
CH        -3.546052193        -2.232114842        0.2198319327    
HH        -3.415793428        -2.693082937       -0.7586060570    
HH        -3.413601795        -2.982455333        0.9982781992    
C         -2.523382999        -1.136523159        0.4021041310    
O         -1.706303349       -0.8980104579       -0.4854894034    
N         -2.544316564       -0.4823843958         1.563296558    
H         -3.246697347       -0.7452005663         2.240114828    
CA        -1.683278018        0.6649416544         1.877830115    
HA        -1.880974547         1.452082592         1.148796481    
CB        -2.082719148         1.190528249         3.262697673    
HB        -3.138860712         1.464275943         3.266023431    
HB        -1.905107593        0.4264034223         4.021332831    
HB        -1.491184325         2.075069245         3.503607196    
C        -0.1730867443        0.3442842866         1.813453200    
O         0.6274500479         1.208276736         1.446963136    
N         0.2178771982       -0.9040018901         2.099971651    
H        -0.4862680397        -1.559487895         2.409029680    
CA         1.603972422        -1.375518803         2.005819895    
HA         2.243869274       -0.6811873134         2.553571115    
CB         1.684295339        -2.742706157         2.696972782    
HB         1.056944147        -3.466395449         2.173876285    
HB         1.350926426        -2.656113412         3.732236058    
HB         2.716212005        -3.096679074         2.689905300    
C          2.134559932        -1.444479738        0.5543869638    
O          3.345443198        -1.339014801        0.3370430136    
N          1.243852323        -1.588358580       -0.4365851741    
H         0.2680554082        -1.680393980       -0.1850157884    
CA         1.570129382        -1.565768001        -1.866755722    
HA         2.622324377        -1.821876642        -2.002277730    
CB        0.7383912570        -2.651630525        -2.561523535    
HB        0.9975958116        -2.689456746        -3.620465408    
HB       -0.3260399356        -2.432740783        -2.464203002    
HB        0.9489141233        -3.623583248        -2.113015134    
C          1.351575392       -0.1773035906        -2.506825967    
O          2.112144469        0.2219105647        -3.393829617    
N         0.3411066239        0.5734424647        -2.049427307    
H        -0.2875663658        0.1587849598        -1.371248770    
CA        0.6822122237E-02     1.908207876        -2.557649152    
HA        0.5927497823E-01     1.887206145        -3.647763952    
CB        -1.444496853         2.211058743        -2.163798057    
HB        -1.536731053         2.258197322        -1.078304628    
HB        -2.105106080         1.432902571        -2.549132105    
HB        -1.746272060         3.169874716        -2.587500075    
C         0.9670524892         3.020553688        -2.074200221    
O          1.150457431         4.023022969        -2.773648034    
N          1.591832406         2.853560502       -0.8992847575    
H          1.354038825         2.031212188       -0.3565936603    
CH         2.547633203         3.793937759       -0.3145863356    
HH         3.416491638         3.900655507       -0.9672689455    
HH         2.080320529         4.772127029       -0.1837586778    
HH         2.879962105         3.429437678        0.6593690931    
