    52
Energy=    -41.7229924013832    
HH        -4.553486280        -1.773335193        0.3598446146    
CH        -3.558400911        -2.206963850        0.2687773888    
HH        -3.447907022        -2.664251181       -0.7138106375    
HH        -3.418575377        -2.961927983         1.041441954    
C         -2.524712536        -1.119803589        0.4389757272    
O         -1.720793756       -0.8831222265       -0.4610388627    
N         -2.521415347       -0.4710209639         1.603352734    
H         -3.214349528       -0.7318535451         2.290595528    
CA        -1.646740620        0.6684368158         1.908731021    
HA        -1.850703778         1.460446814         1.186731023    
CB        -2.019114820         1.190401950         3.302482251    
HB        -3.072988362         1.471898375         3.324712591    
HB        -1.834568611        0.4214151748         4.054520782    
HB        -1.417081352         2.069416428         3.537541543    
C        -0.1402599328        0.3369785142         1.817656625    
O         0.6604603313         1.196775976         1.441820940    
N         0.2461296491       -0.9154914553         2.091857411    
H        -0.4576215382        -1.567228743         2.409618421    
CA         1.626916233        -1.396749308         1.972391908    
HA         2.281004628       -0.7097425527         2.512563810    
CB         1.708578654        -2.767740658         2.655809283    
HB         1.067226573        -3.484312930         2.139943667    
HB         1.393170718        -2.683587730         3.696885319    
HB         2.737572173        -3.129263061         2.629873373    
C          2.132702015        -1.462756954        0.5119946985    
O          3.340544171        -1.365183141        0.2749373030    
N          1.224549697        -1.595392086       -0.4646087212    
H         0.2524252573        -1.681429136       -0.1971970520    
CA         1.527094687        -1.568448062        -1.899911967    
HA         2.574949449        -1.831652286        -2.054171797    
CB        0.6758331325        -2.644864207        -2.585674396    
HB        0.9170567954        -2.679594468        -3.648962067    
HB       -0.3851696109        -2.418607012        -2.469576922    
HB        0.8865686294        -3.620448287        -2.145222350    
C          1.308234016       -0.1754042147        -2.529846903    
O          2.056856812        0.2223861038        -3.427588241    
N         0.3111449057        0.5805907066        -2.052180406    
H        -0.3092004376        0.1673731871        -1.365507530    
CA       -0.2162843542E-01     1.920166506        -2.548600427    
HA        0.1248342314E-01     1.903928932        -3.639524517    
CB        -1.463885735         2.231828623        -2.129166648    
HB        -1.537654865         2.274516869        -1.042078339    
HB        -1.765542748         3.194830720        -2.543352300    
HB        -2.136598339         1.460385163        -2.506984923    
C         0.9547773008         3.023117711        -2.076150541    
O          1.133946775         4.027502580        -2.773946078    
N          1.597800701         2.845981881       -0.9126184968    
H          1.362977926         2.022851918       -0.3698188108    
CH         2.570186527         3.776525497       -0.3396514947    
HH         3.428811473         3.879926533        -1.006262082    
HH         2.112409742         4.757499278       -0.1965357448    
HH         2.915987843         3.404992366        0.6269283351    
    52
Energy=    -36.1058525209150    
HH        -4.657897904        -1.042565646       -0.6741088521    
CH        -3.610760830        -1.330598677       -0.7587146519    
HH        -3.232210304        -1.047106350        -1.740205867    
HH        -3.519250346        -2.408365477       -0.6296780174    
C         -2.812808024       -0.6279721357        0.3151157547    
O         -1.896449081        0.1328063297        0.9408654958E-02
N         -3.145569533       -0.8945132443         1.577875654    
H         -3.917279861        -1.525329162         1.742124598    
CA        -2.513889277       -0.2600133835         2.741544034    
HA        -2.520557484        0.8208191334         2.589074899    
CB        -3.375841243       -0.5695433465         3.972654922    
HB        -4.394977757       -0.2148049175         3.811807679    
HB        -3.392123770        -1.644545780         4.159606643    
HB        -2.962788231       -0.6320468394E-01     4.846254089    
C         -1.042154410       -0.6807342820         2.962752835    
O        -0.2704191097        0.6750185043E-01     3.570773214    
N        -0.6374591184        -1.854709422         2.459791994    
H         -1.327269122        -2.433454289         2.002156470    
CA        0.7310856856        -2.372431529         2.572881828    
HA         1.098494813        -2.171989597         3.581060865    
CB        0.6760813887        -3.894518330         2.388054106    
HB        0.3182839055        -4.139995495         1.386763602    
HB        0.7652203931E-02    -4.335038912         3.129378668    
HB         1.673573927        -4.315679195         2.521542542    
C          1.723318631        -1.718125476         1.583932715    
O          2.919057195        -1.628474808         1.880772306    
N          1.240481288        -1.253832302        0.4236632295    
H         0.2490771016        -1.354314040        0.2570690816    
CA         2.028084271       -0.5690043886       -0.6063504801    
HA         2.815126701        0.1801400098E-01   -0.1285999483    
CB         2.697883016        -1.627837376        -1.498693204    
HB         3.278575836        -1.135349367        -2.279834332    
HB         1.943232072        -2.265134614        -1.962285791    
HB         3.368867560        -2.247234860       -0.9023267441    
C          1.142528568        0.3956952664        -1.425952852    
O         0.3991779708       -0.2415966277E-01    -2.319585451    
N          1.231325399         1.697177836        -1.128290676    
H          1.849531412         1.974489414       -0.3785394692    
CA        0.3987426268         2.740753193        -1.742031235    
HA       -0.6173609124         2.354132598        -1.840341516    
CB        0.3502890736         3.930585261       -0.7740194388    
HB         1.347261778         4.357285505       -0.6532763372    
HB       -0.3188843104         4.697076098        -1.167258993    
HB       -0.2461242168E-01     3.604375210        0.1972980937    
C         0.8534663103         3.173106120        -3.158047347    
O         0.9403174053E-01     3.835211037        -3.874385268    
N          2.075716225         2.808740019        -3.574624009    
H          2.641718626         2.274552777        -2.930124347    
CH         2.649132613         3.130299348        -4.882511703    
HH         2.030030681         2.709168729        -5.677441104    
HH         2.702867871         4.213207876        -5.012863947    
HH         3.655866859         2.715582947        -4.963266895    
    52
Energy=    -37.1212341644944    
HH        -4.382757691       -0.1161923438       -0.6644621880    
CH        -3.293612257       -0.1060004884       -0.6648753432    
HH        -2.935601706        0.7318325348        -1.261899215    
HH        -2.920674020        -1.037850128        -1.087701279    
C         -2.794069051        0.3317283072E-01    0.7549416247    
O         -2.094017436        0.9930712428         1.076204156    
N         -3.153503895       -0.9265205349         1.607834419    
H         -3.749506758        -1.666696746         1.265530971    
CA        -2.799294200       -0.9265618045         3.031857916    
HA        -2.967082519        0.7538159402E-01     3.431256216    
CB        -3.750413650        -1.886903617         3.758166292    
HB        -4.784435508        -1.578863551         3.596068436    
HB        -3.614108862        -2.904482065         3.388352432    
HB        -3.542721608        -1.867432518         4.828995949    
C         -1.320095450        -1.284865448         3.297523804    
O        -0.7198269655       -0.7680861637         4.245165191    
N        -0.7221081647        -2.145076929         2.462255127    
H         -1.283220325        -2.555077586         1.729394824    
CA        0.6812294439        -2.562098281         2.575157046    
HA        0.9556182430        -2.602222669         3.630918887    
CB        0.8032477254        -3.983732242         2.011027341    
HB        0.5421613189        -3.994356431        0.9515683622    
HB        0.1374778593        -4.656464233         2.553781277    
HB         1.829136127        -4.336219711         2.127252605    
C          1.658392631        -1.586439422         1.883207686    
O          2.753146191        -1.335234767         2.397111428    
N          1.261250736        -1.025688804        0.7343743124    
H         0.3512367960        -1.282679291        0.3801496028    
CA         2.011063313       -0.2599226359E-01   -0.3377182971E-01
HA         2.541577861        0.6304447052        0.6590265668    
CB         3.043526909       -0.7445358118       -0.9168194692    
HB         3.624605341       -0.1152535016E-01    -1.478108527    
HB         2.538011647        -1.411312843        -1.617342344    
HB         3.725005597        -1.327780618       -0.2962589029    
C          1.073540931        0.8471896964       -0.8951705966    
O         0.4235780582E-01    0.3747828195        -1.384680018    
N          1.453965497         2.109774695        -1.121146973    
H          2.312225862         2.433778001       -0.6967324514    
CA        0.6622581000         3.084646816        -1.884311645    
HA       -0.3864524408         2.969552121        -1.603930862    
CB         1.107598473         4.488837227        -1.454121991    
HB         2.151488760         4.651619554        -1.726976638    
HB        0.4898230186         5.238425474        -1.950587059    
HB        0.9934606122         4.601039468       -0.3748929658    
C         0.7380946772         2.907749373        -3.421378939    
O        -0.8086468035E-01     3.480422833        -4.149053622    
N          1.702914166         2.124167711        -3.926744195    
H          2.339365121         1.695309117        -3.269650065    
CH         1.903940462         1.849369486        -5.350376793    
HH         1.014922941         1.373738292        -5.769862385    
HH         2.094135411         2.780013628        -5.889165502    
HH         2.757587909         1.182573242        -5.487100673    
